New Line.l(r:p1ulv764-udm1434) Units=km Length=0.00723163 bus1=udm1434.1.2 bus2=p1ulv764.1.2 switch=n enabled=y phases=2 Linecode=1P_UG_AL_4/0_Sweetbriar_0_416_0_2_2

New Line.l(r:udm1434-udt364lv) Units=km Length=0.0178905 bus1=udt364lv.1.2 bus2=udm1434.1.2 switch=n enabled=y phases=2 Linecode=1P_UG_AL_4/0_Sweetbriar_0_416_0_2_2

New Line.l(r:p1ulv54576-udm1436) Units=km Length=0.00528001 bus1=udm1436.1.2 bus2=p1ulv54576.1.2 switch=n enabled=y phases=2 Linecode=1P_UG_AL_1/0_Brenau_0_416_0_2_2

New Line.l(r:p1ulv52484-udm1435) Units=km Length=0.0109326 bus1=udm1435.1.2 bus2=p1ulv52484.1.2 switch=n enabled=y phases=2 Linecode=1P_UG_AL_1/0_Brenau_0_416_0_2_2

New Line.l(r:udm1435-udm1436) Units=km Length=0.00895027 bus1=udm1436.1.2 bus2=udm1435.1.2 switch=n enabled=y phases=2 Linecode=1P_UG_AL_1/0_Brenau_0_416_0_2_2

New Line.l(r:udm1436-udt364lv) Units=km Length=0.00895027 bus1=udt364lv.1.2 bus2=udm1436.1.2 switch=n enabled=y phases=2 Linecode=1P_UG_AL_1/0_Brenau_0_416_0_2_2

New Line.l(r:p1ulv766-udt366lv) Units=km Length=0.0113367 bus1=udt366lv.1.2 bus2=p1ulv766.1.2 switch=n enabled=y phases=2 Linecode=1P_OH_AL_2/0_Rucina_0_416_0_2_2

New Line.l(r:p1ulv767-udt366lv) Units=km Length=0.018099 bus1=udt366lv.1.2 bus2=p1ulv767.1.2 switch=n enabled=y phases=2 Linecode=1P_OH_AL_2/0_Rucina_0_416_0_2_2

New Line.l(r:p1ulv768-udt366lv) Units=km Length=0.0211323 bus1=udt366lv.1.2 bus2=p1ulv768.1.2 switch=n enabled=y phases=2 Linecode=1P_OH_AL_2/0_Rucina_0_416_0_2_2

New Line.l(r:p1ulv771-udt366lv) Units=km Length=0.0111107 bus1=udt366lv.1.2 bus2=p1ulv771.1.2 switch=n enabled=y phases=2 Linecode=1P_OH_AL_2/0_Rucina_0_416_0_2_2

New Line.l(r:p1ulv769-udm1442) Units=km Length=0.0222924 bus1=udm1442.1.2 bus2=p1ulv769.1.2 switch=n enabled=y phases=2 Linecode=1P_OH_AL_2/0_Rucina_0_416_0_2_2

New Line.l(r:p1ulv770-udm1442) Units=km Length=0.0248628 bus1=udm1442.1.2 bus2=p1ulv770.1.2 switch=n enabled=y phases=2 Linecode=1P_OH_AL_2/0_Rucina_0_416_0_2_2

New Line.l(r:udm1442-udt367lv) Units=km Length=0.0872732 bus1=udt367lv.1.2 bus2=udm1442.1.2 switch=n enabled=y phases=2 Linecode=1P_OH_AL_4/0_Zuzara_0_416_0_2_2

New Line.l(r:p1ulv45291-udm1444) Units=km Length=0.02004 bus1=udm1444.1.2 bus2=p1ulv45291.1.2 switch=n enabled=y phases=2 Linecode=1P_OH_AL_2/0_Rucina_0_416_0_2_2

New Line.l(r:p1ulv50102-udm1444) Units=km Length=0.0141302 bus1=udm1444.1.2 bus2=p1ulv50102.1.2 switch=n enabled=y phases=2 Linecode=1P_OH_AL_2/0_Rucina_0_416_0_2_2

New Line.l(r:udm1444-udt367lv) Units=km Length=0.00582602 bus1=udt367lv.1.2 bus2=udm1444.1.2 switch=n enabled=y phases=2 Linecode=1P_OH_AL_2/0_Rucina_0_416_0_2_0_2

New Line.l(r:p1ulv777-udt368lv) Units=km Length=0.0204706 bus1=udt368lv.1.2 bus2=p1ulv777.1.2 switch=n enabled=y phases=2 Linecode=1P_UG_AL_1/0_Brenau_0_416_0_2_2

New Line.l(r:p1ulv776-udm1449) Units=km Length=0.0176992 bus1=udm1449.1.2 bus2=p1ulv776.1.2 switch=n enabled=y phases=2 Linecode=1P_UG_AL_1/0_Brenau_0_416_0_2_2

New Line.l(r:p1ulv774-udm1447) Units=km Length=0.0114273 bus1=udm1447.1.2 bus2=p1ulv774.1.2 switch=n enabled=y phases=2 Linecode=1P_UG_AL_1/0_Brenau_0_416_0_2_2

New Line.l(r:p1ulv775-udm1447) Units=km Length=0.0146362 bus1=udm1447.1.2 bus2=p1ulv775.1.2 switch=n enabled=y phases=2 Linecode=1P_UG_AL_1/0_Brenau_0_416_0_2_2

New Line.l(r:p1ulv772-udm1446) Units=km Length=0.0105387 bus1=udm1446.1.2 bus2=p1ulv772.1.2 switch=n enabled=y phases=2 Linecode=1P_UG_AL_1/0_Brenau_0_416_0_2_2

New Line.l(r:udm1446-udm1447) Units=km Length=0.00983161 bus1=udm1447.1.2 bus2=udm1446.1.2 switch=n enabled=y phases=2 Linecode=1P_UG_AL_1/0_Brenau_0_416_0_2_2

New Line.l(r:udm1447-udm1449) Units=km Length=0.00754552 bus1=udm1449.1.2 bus2=udm1447.1.2 switch=n enabled=y phases=2 Linecode=1P_UG_AL_2/0_Converse_0_416_0_2_2

New Line.l(r:udm1449-udt368lv) Units=km Length=0.0075447 bus1=udt368lv.1.2 bus2=udm1449.1.2 switch=n enabled=y phases=2 Linecode=1P_UG_AL_4/0_Sweetbriar_0_416_0_2_2

New Line.l(r:p1ulv779-udm1452) Units=km Length=0.0129504 bus1=udm1452.1.2 bus2=p1ulv779.1.2 switch=n enabled=y phases=2 Linecode=1P_UG_AL_1/0_Brenau_0_416_0_2_2

New Line.l(r:p1ulv778-udm1451) Units=km Length=0.00892288 bus1=udm1451.1.2 bus2=p1ulv778.1.2 switch=n enabled=y phases=2 Linecode=1P_UG_AL_1/0_Brenau_0_416_0_2_2

New Line.l(r:udm1451-udm1452) Units=km Length=0.0166246 bus1=udm1452.1.2 bus2=udm1451.1.2 switch=n enabled=y phases=2 Linecode=1P_UG_AL_1/0_Brenau_0_416_0_2_2

New Line.l(r:udm1452-udt368lv) Units=km Length=0.00753473 bus1=udt368lv.1.2 bus2=udm1452.1.2 switch=n enabled=y phases=2 Linecode=1P_UG_AL_1/0_Brenau_0_416_0_2_2

New Line.l(r:p1ulv782-udt369lv) Units=km Length=0.0171479 bus1=udt369lv.1.2 bus2=p1ulv782.1.2 switch=n enabled=y phases=2 Linecode=1P_UG_AL_1/0_Brenau_0_416_0_2_2

New Line.l(r:p1ulv780-udm1453) Units=km Length=0.0158521 bus1=udm1453.1.2 bus2=p1ulv780.1.2 switch=n enabled=y phases=2 Linecode=1P_UG_AL_1/0_Brenau_0_416_0_2_2

New Line.l(r:p1ulv781-udm1453) Units=km Length=0.0164152 bus1=udm1453.1.2 bus2=p1ulv781.1.2 switch=n enabled=y phases=2 Linecode=1P_UG_AL_1/0_Brenau_0_416_0_2_2

New Line.l(r:p1ulv57837-udm1453) Units=km Length=0.012711600000000002 bus1=udm1453.1.2 bus2=p1ulv57837.1.2 switch=n enabled=y phases=2 Linecode=1P_UG_AL_1/0_Brenau_0_416_0_2_2

New Line.l(r:p1ulv60416-udm1460) Units=km Length=0.0169994 bus1=udm1460.1.2 bus2=p1ulv60416.1.2 switch=n enabled=y phases=2 Linecode=1P_UG_AL_1/0_Brenau_0_416_0_2_2

New Line.l(r:udm1453-udm1460) Units=km Length=0.0195564 bus1=udm1453.1.2 bus2=udm1460.1.2 switch=n enabled=y phases=2 Linecode=1P_UG_AL_1/0_Brenau_0_416_0_2_2

New Line.l(r:udm1453-udt369lv) Units=km Length=0.00978277 bus1=udt369lv.1.2 bus2=udm1453.1.2 switch=n enabled=y phases=2 Linecode=1P_UG_AL_2/0_Converse_0_416_0_2_2

New Line.l(r:p1ulv43262-udm1456) Units=km Length=0.0151466 bus1=udm1456.1.2 bus2=p1ulv43262.1.2 switch=n enabled=y phases=2 Linecode=1P_UG_AL_1/0_Brenau_0_416_0_2_2

New Line.l(r:p1ulv46821-udm1456) Units=km Length=0.0146002 bus1=udm1456.1.2 bus2=p1ulv46821.1.2 switch=n enabled=y phases=2 Linecode=1P_UG_AL_1/0_Brenau_0_416_0_2_2

New Line.l(r:p1ulv59863-udm1459) Units=km Length=0.0173773 bus1=udm1459.1.2 bus2=p1ulv59863.1.2 switch=n enabled=y phases=2 Linecode=1P_OH_AL_2/0_Rucina_0_416_0_2_2

New Line.l(r:udm1456-udm1459) Units=km Length=0.0758971 bus1=udm1456.1.2 bus2=udm1459.1.2 switch=n enabled=y phases=2 Linecode=1P_OH_AL_4/0_Zuzara_0_416_0_2_2

New Line.l(r:udm1456-udt369lv) Units=km Length=0.009773620000000002 bus1=udt369lv.1.2 bus2=udm1456.1.2 switch=n enabled=y phases=2 Linecode=1P_UG_AL_2/0_Converse_0_416_0_2_2

New Line.l(r:p1ulv828-udm1583) Units=km Length=0.0221011 bus1=udm1583.1.2 bus2=p1ulv828.1.2 switch=n enabled=y phases=2 Linecode=1P_UG_AL_1/0_Brenau_0_416_0_2_2

New Line.l(r:p1ulv45175-udm1584) Units=km Length=0.0179976 bus1=udm1584.1.2 bus2=p1ulv45175.1.2 switch=n enabled=y phases=2 Linecode=1P_UG_AL_1/0_Brenau_0_416_0_2_2

New Line.l(r:p1ulv55517-udm1584) Units=km Length=0.020952400000000003 bus1=udm1584.1.2 bus2=p1ulv55517.1.2 switch=n enabled=y phases=2 Linecode=1P_UG_AL_1/0_Brenau_0_416_0_2_2

New Line.l(r:udm1583-udm1584) Units=km Length=0.0093836 bus1=udm1583.1.2 bus2=udm1584.1.2 switch=n enabled=y phases=2 Linecode=1P_UG_AL_1/0_Brenau_0_416_0_2_2

New Line.l(r:udm1583-udt405lv) Units=km Length=0.00939177 bus1=udt405lv.1.2 bus2=udm1583.1.2 switch=n enabled=y phases=2 Linecode=1P_UG_AL_4/0_Sweetbriar_0_416_0_2_2

New Line.l(r:p1ulv48119-udm1585) Units=km Length=0.0208495 bus1=udm1585.1.2 bus2=p1ulv48119.1.2 switch=n enabled=y phases=2 Linecode=1P_UG_AL_1/0_Brenau_0_416_0_2_2

New Line.l(r:p1ulv55401-udm1586) Units=km Length=0.0162058 bus1=udm1586.1.2 bus2=p1ulv55401.1.2 switch=n enabled=y phases=2 Linecode=1P_UG_AL_1/0_Brenau_0_416_0_2_2

New Line.l(r:p1ulv57319-udm1588) Units=km Length=0.0195035 bus1=udm1588.1.2 bus2=p1ulv57319.1.2 switch=n enabled=y phases=2 Linecode=1P_UG_AL_1/0_Brenau_0_416_0_2_2

New Line.l(r:p1ulv826-udm1582) Units=km Length=0.0261078 bus1=udm1582.1.2 bus2=p1ulv826.1.2 switch=n enabled=y phases=2 Linecode=1P_UG_AL_1/0_Brenau_0_416_0_2_2

New Line.l(r:udm1582-udm1588) Units=km Length=0.00976075 bus1=udm1588.1.2 bus2=udm1582.1.2 switch=n enabled=y phases=2 Linecode=1P_UG_AL_1/0_Brenau_0_416_0_2_2

New Line.l(r:udm1586-udm1588) Units=km Length=0.0695485 bus1=udm1586.1.2 bus2=udm1588.1.2 switch=n enabled=y phases=2 Linecode=1P_UG_AL_4/0_Sweetbriar_0_416_0_2_2

New Line.l(r:udm1585-udm1586) Units=km Length=0.00939177 bus1=udm1585.1.2 bus2=udm1586.1.2 switch=n enabled=y phases=2 Linecode=1P_UG_AL_4/0_Sweetbriar_0_416_0_2_2

New Line.l(r:udm1585-udt405lv) Units=km Length=0.00937783 bus1=udt405lv.1.2 bus2=udm1585.1.2 switch=n enabled=y phases=2 Linecode=1P_UG_AL_4/0_Sweetbriar_0_416_0_2_2

New Line.l(r:p1ulv827-udt406lv) Units=km Length=0.029045 bus1=udt406lv.1.2 bus2=p1ulv827.1.2 switch=n enabled=y phases=2 Linecode=1P_UG_AL_1/0_Brenau_0_416_0_2_2

New Line.l(r:p1ulv45238-udt406lv) Units=km Length=0.0337166 bus1=udt406lv.1.2 bus2=p1ulv45238.1.2 switch=n enabled=y phases=2 Linecode=1P_UG_AL_1/0_Brenau_0_416_0_2_2

New Line.l(r:p1ulv46448-udt406lv) Units=km Length=0.0290086 bus1=udt406lv.1.2 bus2=p1ulv46448.1.2 switch=n enabled=y phases=2 Linecode=1P_UG_AL_1/0_Brenau_0_416_0_2_2

New Line.l(r:p1ulv51375-udt406lv) Units=km Length=0.0466132 bus1=udt406lv.1.2 bus2=p1ulv51375.1.2 switch=n enabled=y phases=2 Linecode=1P_UG_AL_1/0_Brenau_0_416_0_2_2

New Line.l(r:p1ulv57625-udt406lv) Units=km Length=0.030325000000000005 bus1=udt406lv.1.2 bus2=p1ulv57625.1.2 switch=n enabled=y phases=2 Linecode=1P_UG_AL_1/0_Brenau_0_416_0_2_2

New Line.l(r:p1ulv60486-udt406lv) Units=km Length=0.0303947 bus1=udt406lv.1.2 bus2=p1ulv60486.1.2 switch=n enabled=y phases=2 Linecode=1P_UG_AL_1/0_Brenau_0_416_0_2_2

New Line.l(r:p1ulv58193-udm1594) Units=km Length=0.020336 bus1=udm1594.1.2 bus2=p1ulv58193.1.2 switch=n enabled=y phases=2 Linecode=1P_UG_AL_1/0_Brenau_0_416_0_2_2

New Line.l(r:udm1594-udt406lv) Units=km Length=0.0602342 bus1=udt406lv.1.2 bus2=udm1594.1.2 switch=n enabled=y phases=2 Linecode=1P_UG_AL_1/0_Brenau_0_416_0_2_2

New Line.l(r:p1ulv901-udt471lv) Units=km Length=0.0338551 bus1=udt471lv.1.2 bus2=p1ulv901.1.2 switch=n enabled=y phases=2 Linecode=1P_UG_AL_1/0_Brenau_0_416_0_2_2

New Line.l(r:p1ulv60786-udm1859) Units=km Length=0.0140307 bus1=udm1859.1.2 bus2=p1ulv60786.1.2 switch=n enabled=y phases=2 Linecode=1P_UG_AL_1/0_Brenau_0_416_0_2_2

New Line.l(r:udm1859-udt471lv) Units=km Length=0.00924371 bus1=udt471lv.1.2 bus2=udm1859.1.2 switch=n enabled=y phases=2 Linecode=1P_UG_AL_1/0_Brenau_0_416_0_2_2

New Line.l(r:p1ulv40249-udt514lv) Units=km Length=0.04369130000000001 bus1=udt514lv.1.2 bus2=p1ulv40249.1.2 switch=n enabled=y phases=2 Linecode=1P_OH_AL_4/0_Zuzara_0_416_0_2_2

New Line.l(r:p1ulv40294-udt514lv) Units=km Length=0.0207107 bus1=udt514lv.1.2 bus2=p1ulv40294.1.2 switch=n enabled=y phases=2 Linecode=1P_OH_AL_2/0_Rucina_0_416_0_2_2

New Line.l(r:p1ulv52887-udt514lv) Units=km Length=0.04794790000000001 bus1=udt514lv.1.2 bus2=p1ulv52887.1.2 switch=n enabled=y phases=2 Linecode=1P_OH_AL_4/0_Zuzara_0_416_0_2_2

New Line.l(r:p1ulv14632-udm2058) Units=km Length=0.021022 bus1=udm2058.1.2 bus2=p1ulv14632.1.2 switch=n enabled=y phases=2 Linecode=1P_OH_AL_2/0_Rucina_0_416_0_2_2

New Line.l(r:p1ulv45096-udm2058) Units=km Length=0.0203626 bus1=udm2058.1.2 bus2=p1ulv45096.1.2 switch=n enabled=y phases=2 Linecode=1P_OH_AL_2/0_Rucina_0_416_0_2_2

New Line.l(r:p1ulv50042-udm2058) Units=km Length=0.0365875 bus1=udm2058.1.2 bus2=p1ulv50042.1.2 switch=n enabled=y phases=2 Linecode=1P_OH_AL_4/0_Zuzara_0_416_0_2_2

New Line.l(r:p1ulv946-udm2057) Units=km Length=0.0268091 bus1=udm2057.1.2 bus2=p1ulv946.1.2 switch=n enabled=y phases=2 Linecode=1P_OH_AL_2/0_Rucina_0_416_0_2_2

New Line.l(r:udm2057-udm2058) Units=km Length=0.0188845 bus1=udm2058.1.2 bus2=udm2057.1.2 switch=n enabled=y phases=2 Linecode=1P_OH_AL_2/0_Rucina_0_416_0_2_2

New Line.l(r:udm2058-udt514lv) Units=km Length=0.0188886 bus1=udt514lv.1.2 bus2=udm2058.1.2 switch=n enabled=y phases=2 Linecode=1P_OH_AL_2/0_Rucina_0_416_0_2_2

New Line.l(r:p1ulv59696-udm2064) Units=km Length=0.0231573 bus1=udm2064.1.2 bus2=p1ulv59696.1.2 switch=n enabled=y phases=2 Linecode=1P_OH_AL_2/0_Rucina_0_416_0_2_2

New Line.l(r:udm2064-udt514lv) Units=km Length=0.0188886 bus1=udt514lv.1.2 bus2=udm2064.1.2 switch=n enabled=y phases=2 Linecode=1P_OH_AL_2/0_Rucina_0_416_0_2_2

New Line.l(r:p1ulv53778-udm2067) Units=km Length=0.03669540000000001 bus1=udm2067.1.2 bus2=p1ulv53778.1.2 switch=n enabled=y phases=2 Linecode=1P_UG_AL_1/0_Brenau_0_416_0_2_2

New Line.l(r:p1ulv947-udm2065) Units=km Length=0.0325937 bus1=udm2065.1.2 bus2=p1ulv947.1.2 switch=n enabled=y phases=2 Linecode=1P_UG_AL_1/0_Brenau_0_416_0_2_2

New Line.l(r:udm2065-udm2067) Units=km Length=0.0339647 bus1=udm2067.1.2 bus2=udm2065.1.2 switch=n enabled=y phases=2 Linecode=1P_UG_AL_1/0_Brenau_0_416_0_2_2

New Line.l(r:udm2067-udt515lv) Units=km Length=0.00884319 bus1=udt515lv.1.2 bus2=udm2067.1.2 switch=n enabled=y phases=2 Linecode=1P_UG_AL_1/0_Brenau_0_416_0_2_2

New Line.l(r:p1ulv59229-udm2068) Units=km Length=0.0325654 bus1=udm2068.1.2 bus2=p1ulv59229.1.2 switch=n enabled=y phases=2 Linecode=1P_UG_AL_1/0_Brenau_0_416_0_2_2

New Line.l(r:p1ulv48632-udm2066) Units=km Length=0.0238808 bus1=udm2066.1.2 bus2=p1ulv48632.1.2 switch=n enabled=y phases=2 Linecode=1P_UG_AL_1/0_Brenau_0_416_0_2_2

New Line.l(r:udm2066-udm2068) Units=km Length=0.0182802 bus1=udm2068.1.2 bus2=udm2066.1.2 switch=n enabled=y phases=2 Linecode=1P_UG_AL_1/0_Brenau_0_416_0_2_2

New Line.l(r:udm2068-udt515lv) Units=km Length=0.0179708 bus1=udt515lv.1.2 bus2=udm2068.1.2 switch=n enabled=y phases=2 Linecode=1P_UG_AL_1/0_Brenau_0_416_0_2_2

New Line.l(r:p1ulv949-udt516lv) Units=km Length=0.0207903 bus1=udt516lv.1.2 bus2=p1ulv949.1.2 switch=n enabled=y phases=2 Linecode=1P_OH_AL_2/0_Rucina_0_416_0_2_2

New Line.l(r:p1ulv43078-udm2071) Units=km Length=0.0289433 bus1=udm2071.1.2 bus2=p1ulv43078.1.2 switch=n enabled=y phases=2 Linecode=1P_OH_AL_4/0_Zuzara_0_416_0_2_2

New Line.l(r:p1ulv948-udm2069) Units=km Length=0.0371979 bus1=udm2069.1.2 bus2=p1ulv948.1.2 switch=n enabled=y phases=2 Linecode=1P_OH_AL_4/0_Zuzara_0_416_0_2_2

New Line.l(r:udm2069-udm2071) Units=km Length=0.0188845 bus1=udm2071.1.2 bus2=udm2069.1.2 switch=n enabled=y phases=2 Linecode=1P_OH_AL_2/0_Rucina_0_416_0_2_2

New Line.l(r:udm2071-udt516lv) Units=km Length=0.0188886 bus1=udt516lv.1.2 bus2=udm2071.1.2 switch=n enabled=y phases=2 Linecode=1P_OH_AL_2/0_Rucina_0_416_0_2_2

New Line.l(r:p1ulv48369-udm2072) Units=km Length=0.020380300000000004 bus1=udm2072.1.2 bus2=p1ulv48369.1.2 switch=n enabled=y phases=2 Linecode=1P_OH_AL_2/0_Rucina_0_416_0_2_2

New Line.l(r:udm2072-udt516lv) Units=km Length=0.0188886 bus1=udt516lv.1.2 bus2=udm2072.1.2 switch=n enabled=y phases=2 Linecode=1P_OH_AL_2/0_Rucina_0_416_0_2_2

New Line.l(r:p1ulv52194-udt517lv) Units=km Length=0.052189700000000006 bus1=udt517lv.1.2 bus2=p1ulv52194.1.2 switch=n enabled=y phases=2 Linecode=1P_OH_AL_4/0_Zuzara_0_416_0_2_2

New Line.l(r:p1ulv950-udm2073) Units=km Length=0.0269174 bus1=udm2073.1.2 bus2=p1ulv950.1.2 switch=n enabled=y phases=2 Linecode=1P_OH_AL_2/0_Rucina_0_416_0_2_2

New Line.l(r:udm2073-udt517lv) Units=km Length=0.0188886 bus1=udt517lv.1.2 bus2=udm2073.1.2 switch=n enabled=y phases=2 Linecode=1P_OH_AL_2/0_Rucina_0_416_0_2_2

New Line.l(r:p1ulv47992-udm2074) Units=km Length=0.027416 bus1=udm2074.1.2 bus2=p1ulv47992.1.2 switch=n enabled=y phases=2 Linecode=1P_OH_AL_4/0_Zuzara_0_416_0_2_2

New Line.l(r:udm2074-udt517lv) Units=km Length=0.0188845 bus1=udt517lv.1.2 bus2=udm2074.1.2 switch=n enabled=y phases=2 Linecode=1P_OH_AL_2/0_Rucina_0_416_0_2_2

New Line.l(r:p1ulv951-udt518lv) Units=km Length=0.0141387 bus1=udt518lv.1.2 bus2=p1ulv951.1.2 switch=n enabled=y phases=2 Linecode=1P_OH_AL_2/0_Rucina_0_416_0_2_2

New Line.l(r:p1ulv963-udt519lv) Units=km Length=0.0395345 bus1=udt519lv.1.2 bus2=p1ulv963.1.2 switch=n enabled=y phases=2 Linecode=1P_OH_AL_4/0_Zuzara_0_416_0_2_2

New Line.l(r:p1ulv55106-udt519lv) Units=km Length=0.0388334 bus1=udt519lv.1.2 bus2=p1ulv55106.1.2 switch=n enabled=y phases=2 Linecode=1P_OH_AL_4/0_Zuzara_0_416_0_2_2

New Line.l(r:p1ulv952-udm2077) Units=km Length=0.0733702 bus1=udm2077.1.2 bus2=p1ulv952.1.2 switch=n enabled=y phases=2 Linecode=1P_OH_AL_4/0_Zuzara_0_416_0_2_2

New Line.l(r:p1ulv972-udm2080) Units=km Length=0.0325909 bus1=udm2080.1.2 bus2=p1ulv972.1.2 switch=n enabled=y phases=2 Linecode=1P_OH_AL_4/0_Zuzara_0_416_0_2_2

New Line.l(r:p1ulv57369-udm2080) Units=km Length=0.0686612 bus1=udm2080.1.2 bus2=p1ulv57369.1.2 switch=n enabled=y phases=2 Linecode=1P_OH_AL_4/0_Zuzara_0_416_0_2_2

New Line.l(r:udm2077-udm2080) Units=km Length=0.0194515 bus1=udm2077.1.2 bus2=udm2080.1.2 switch=n enabled=y phases=2 Linecode=1P_OH_AL_2/0_Rucina_0_416_0_2_2

New Line.l(r:udm2077-udt519lv) Units=km Length=0.0194438 bus1=udt519lv.1.2 bus2=udm2077.1.2 switch=n enabled=y phases=2 Linecode=1P_OH_AL_2/0_Rucina_0_416_0_2_2

New Line.l(r:p1ulv962-udm2078) Units=km Length=0.0401502 bus1=udm2078.1.2 bus2=p1ulv962.1.2 switch=n enabled=y phases=2 Linecode=1P_OH_AL_4/0_Zuzara_0_416_0_2_2

New Line.l(r:p1ulv57942-udm2084) Units=km Length=0.0483449 bus1=udm2084.1.2 bus2=p1ulv57942.1.2 switch=n enabled=y phases=2 Linecode=1P_OH_AL_4/0_Zuzara_0_416_0_2_2

New Line.l(r:p1ulv43385-udm2081) Units=km Length=0.0645824 bus1=udm2081.1.2 bus2=p1ulv43385.1.2 switch=n enabled=y phases=2 Linecode=1P_OH_AL_4/0_Zuzara_0_416_0_2_2

New Line.l(r:udm2081-udm2084) Units=km Length=0.0194438 bus1=udm2084.1.2 bus2=udm2081.1.2 switch=n enabled=y phases=2 Linecode=1P_OH_AL_2/0_Rucina_0_416_0_2_2

New Line.l(r:udm2078-udm2084) Units=km Length=0.019457800000000004 bus1=udm2078.1.2 bus2=udm2084.1.2 switch=n enabled=y phases=2 Linecode=1P_OH_AL_2/0_Rucina_0_416_0_2_2

New Line.l(r:udm2078-udt519lv) Units=km Length=0.0194515 bus1=udt519lv.1.2 bus2=udm2078.1.2 switch=n enabled=y phases=2 Linecode=1P_OH_AL_2/0_Rucina_0_416_0_2_2

New Line.l(r:p1ulv953-udt520lv) Units=km Length=0.0703832 bus1=udt520lv.1.2 bus2=p1ulv953.1.2 switch=n enabled=y phases=2 Linecode=1P_OH_AL_4/0_Zuzara_0_416_0_2_2

New Line.l(r:p1ulv954-udt520lv) Units=km Length=0.0778876 bus1=udt520lv.1.2 bus2=p1ulv954.1.2 switch=n enabled=y phases=2 Linecode=1P_OH_AL_4/0_Zuzara_0_416_0_2_2

New Line.l(r:p1ulv58659-udt520lv) Units=km Length=0.017276 bus1=udt520lv.1.2 bus2=p1ulv58659.1.2 switch=n enabled=y phases=2 Linecode=1P_OH_AL_2/0_Rucina_0_416_0_2_2

New Line.l(r:p1ulv957-udm2087) Units=km Length=0.0565129 bus1=udm2087.1.2 bus2=p1ulv957.1.2 switch=n enabled=y phases=2 Linecode=1P_OH_AL_4/0_Zuzara_0_416_0_2_2

New Line.l(r:p1ulv959-udm2088) Units=km Length=0.0318852 bus1=udm2088.1.2 bus2=p1ulv959.1.2 switch=n enabled=y phases=2 Linecode=1P_OH_AL_4/0_Zuzara_0_416_0_2_2

New Line.l(r:udm2087-udm2088) Units=km Length=0.0188167 bus1=udm2087.1.2 bus2=udm2088.1.2 switch=n enabled=y phases=2 Linecode=1P_OH_AL_2/0_Rucina_0_416_0_2_2

New Line.l(r:udm2087-udt520lv) Units=km Length=0.018823200000000002 bus1=udt520lv.1.2 bus2=udm2087.1.2 switch=n enabled=y phases=2 Linecode=1P_OH_AL_2/0_Rucina_0_416_0_2_2

New Line.l(r:p1ulv48502-udm2089) Units=km Length=0.0469173 bus1=udm2089.1.2 bus2=p1ulv48502.1.2 switch=n enabled=y phases=2 Linecode=1P_OH_AL_4/0_Zuzara_0_416_0_2_2

New Line.l(r:udm2089-udt520lv) Units=km Length=0.0188167 bus1=udt520lv.1.2 bus2=udm2089.1.2 switch=n enabled=y phases=2 Linecode=1P_OH_AL_2/0_Rucina_0_416_0_2_2

New Line.l(r:p1ulv955-udt521lv) Units=km Length=0.0142079 bus1=udt521lv.1.2 bus2=p1ulv955.1.2 switch=n enabled=y phases=2 Linecode=1P_UG_AL_4/0_Sweetbriar_0_416_0_2_2

New Line.l(r:p1ulv41792-udt522lv) Units=km Length=0.0160743 bus1=udt522lv.1.2 bus2=p1ulv41792.1.2 switch=n enabled=y phases=2 Linecode=1P_UG_AL_1/0_Brenau_0_416_0_2_2

New Line.l(r:p1ulv58312-udt522lv) Units=km Length=0.018942500000000004 bus1=udt522lv.1.2 bus2=p1ulv58312.1.2 switch=n enabled=y phases=2 Linecode=1P_UG_AL_1/0_Brenau_0_416_0_2_2

New Line.l(r:p1ulv956-udm2092) Units=km Length=0.0120632 bus1=udm2092.1.2 bus2=p1ulv956.1.2 switch=n enabled=y phases=2 Linecode=1P_UG_AL_1/0_Brenau_0_416_0_2_2

New Line.l(r:udm2092-udt522lv) Units=km Length=0.0095468 bus1=udt522lv.1.2 bus2=udm2092.1.2 switch=n enabled=y phases=2 Linecode=1P_UG_AL_1/0_Brenau_0_416_0_2_2

New Line.l(r:p1ulv54574-udm2094) Units=km Length=0.00906838 bus1=udm2094.1.2 bus2=p1ulv54574.1.2 switch=n enabled=y phases=2 Linecode=1P_UG_AL_1/0_Brenau_0_416_0_2_2

New Line.l(r:udm2094-udt522lv) Units=km Length=0.00953944 bus1=udt522lv.1.2 bus2=udm2094.1.2 switch=n enabled=y phases=2 Linecode=1P_UG_AL_1/0_Brenau_0_416_0_2_2

New Line.l(r:p1ulv964-udm2110) Units=km Length=0.07637 bus1=udm2110.1.2 bus2=p1ulv964.1.2 switch=n enabled=y phases=2 Linecode=1P_UG_AL_1/0_Brenau_0_416_0_2_2

New Line.l(r:udm2110-udt526lv) Units=km Length=0.0196132 bus1=udt526lv.1.2 bus2=udm2110.1.2 switch=n enabled=y phases=2 Linecode=1P_OH_AL_2/0_Rucina_0_416_0_2_2

New Line.l(r:p1ulv52069-udm2111) Units=km Length=0.0158585 bus1=udm2111.1.2 bus2=p1ulv52069.1.2 switch=n enabled=y phases=2 Linecode=1P_OH_AL_2/0_Rucina_0_416_0_2_2

New Line.l(r:udm2111-udt526lv) Units=km Length=0.0196132 bus1=udt526lv.1.2 bus2=udm2111.1.2 switch=n enabled=y phases=2 Linecode=1P_OH_AL_2/0_Rucina_0_416_0_2_2

New Line.l(r:p1ulv45351-udm2118) Units=km Length=0.00704949 bus1=udm2118.1.2 bus2=p1ulv45351.1.2 switch=n enabled=y phases=2 Linecode=1P_UG_AL_1/0_Brenau_0_416_0_2_2

New Line.l(r:p1ulv59538-udm2123) Units=km Length=0.0041731 bus1=udm2123.1.2 bus2=p1ulv59538.1.2 switch=n enabled=y phases=2 Linecode=1P_UG_AL_1/0_Brenau_0_416_0_2_2

New Line.l(r:p1ulv55855-udm2122) Units=km Length=0.00519655 bus1=udm2122.1.2 bus2=p1ulv55855.1.2 switch=n enabled=y phases=2 Linecode=1P_UG_AL_1/0_Brenau_0_416_0_2_2

New Line.l(r:p1ulv52378-udm2120) Units=km Length=0.00687783 bus1=udm2120.1.2 bus2=p1ulv52378.1.2 switch=n enabled=y phases=2 Linecode=1P_UG_AL_1/0_Brenau_0_416_0_2_2

New Line.l(r:p1ulv54091-udm2121) Units=km Length=0.00525564 bus1=udm2121.1.2 bus2=p1ulv54091.1.2 switch=n enabled=y phases=2 Linecode=1P_UG_AL_1/0_Brenau_0_416_0_2_2

New Line.l(r:udm2120-udm2121) Units=km Length=0.009646170000000003 bus1=udm2120.1.2 bus2=udm2121.1.2 switch=n enabled=y phases=2 Linecode=1P_UG_AL_1/0_Brenau_0_416_0_2_2

New Line.l(r:udm2120-udm2122) Units=km Length=0.00964714 bus1=udm2122.1.2 bus2=udm2120.1.2 switch=n enabled=y phases=2 Linecode=1P_UG_AL_1/0_Brenau_0_416_0_2_2

New Line.l(r:udm2122-udm2123) Units=km Length=0.009646170000000003 bus1=udm2123.1.2 bus2=udm2122.1.2 switch=n enabled=y phases=2 Linecode=1P_UG_AL_1/0_Brenau_0_416_0_2_2

New Line.l(r:udm2118-udm2123) Units=km Length=0.0194382 bus1=udm2118.1.2 bus2=udm2123.1.2 switch=n enabled=y phases=2 Linecode=1P_UG_AL_4/0_Sweetbriar_0_416_0_2_2

New Line.l(r:udm2118-udt529lv) Units=km Length=0.0180637 bus1=udt529lv.1.2 bus2=udm2118.1.2 switch=n enabled=y phases=2 Linecode=1P_UG_AL_4/0_Sweetbriar_0_416_0_2_2

New Line.l(r:p1ulv60933-udm2124) Units=km Length=0.00505015 bus1=udm2124.1.2 bus2=p1ulv60933.1.2 switch=n enabled=y phases=2 Linecode=1P_UG_AL_1/0_Brenau_0_416_0_2_2

New Line.l(r:p1ulv50169-udm2119) Units=km Length=0.0169185 bus1=udm2119.1.2 bus2=p1ulv50169.1.2 switch=n enabled=y phases=2 Linecode=1P_UG_AL_1/0_Brenau_0_416_0_2_2

New Line.l(r:p1ulv967-udm2114) Units=km Length=0.00654591 bus1=udm2114.1.2 bus2=p1ulv967.1.2 switch=n enabled=y phases=2 Linecode=1P_UG_AL_1/0_Brenau_0_416_0_2_2

New Line.l(r:p1ulv969-udm2115) Units=km Length=0.00599021 bus1=udm2115.1.2 bus2=p1ulv969.1.2 switch=n enabled=y phases=2 Linecode=1P_UG_AL_1/0_Brenau_0_416_0_2_2

New Line.l(r:p1ulv43325-udm2115) Units=km Length=0.00652185 bus1=udm2115.1.2 bus2=p1ulv43325.1.2 switch=n enabled=y phases=2 Linecode=1P_UG_AL_1/0_Brenau_0_416_0_2_2

New Line.l(r:p1ulv42102-udm2116) Units=km Length=0.00600167 bus1=udm2116.1.2 bus2=p1ulv42102.1.2 switch=n enabled=y phases=2 Linecode=1P_UG_AL_1/0_Brenau_0_416_0_2_2

New Line.l(r:udm2115-udm2116) Units=km Length=0.009208 bus1=udm2115.1.2 bus2=udm2116.1.2 switch=n enabled=y phases=2 Linecode=1P_UG_AL_1/0_Brenau_0_416_0_2_2

New Line.l(r:udm2114-udm2115) Units=km Length=0.0184218 bus1=udm2114.1.2 bus2=udm2115.1.2 switch=n enabled=y phases=2 Linecode=1P_UG_AL_4/0_Sweetbriar_0_416_0_2_2

New Line.l(r:udm2114-udm2119) Units=km Length=0.00922196 bus1=udm2119.1.2 bus2=udm2114.1.2 switch=n enabled=y phases=2 Linecode=1P_UG_AL_4/0_Sweetbriar_0_416_0_2_2

New Line.l(r:udm2119-udm2124) Units=km Length=0.009208 bus1=udm2124.1.2 bus2=udm2119.1.2 switch=n enabled=y phases=2 Linecode=1P_UG_AL_4/0_Sweetbriar_0_416_0_2_2

New Line.l(r:udm2124-udt529lv) Units=km Length=0.00999072 bus1=udt529lv.1.2 bus2=udm2124.1.2 switch=n enabled=y phases=2 Linecode=1P_UG_AL_4/0_Sweetbriar_0_416_0_2_2

New Line.l(r:p1ulv44659-udm2126) Units=km Length=0.0135207 bus1=udm2126.1.2 bus2=p1ulv44659.1.2 switch=n enabled=y phases=2 Linecode=1P_UG_AL_1/0_Brenau_0_416_0_2_2

New Line.l(r:p1ulv60696-udm2129) Units=km Length=0.0195994 bus1=udm2129.1.2 bus2=p1ulv60696.1.2 switch=n enabled=y phases=2 Linecode=1P_UG_AL_1/0_Brenau_0_416_0_2_2

New Line.l(r:p1ulv56785-udm2128) Units=km Length=0.0151086 bus1=udm2128.1.2 bus2=p1ulv56785.1.2 switch=n enabled=y phases=2 Linecode=1P_UG_AL_1/0_Brenau_0_416_0_2_2

New Line.l(r:udm2128-udm2129) Units=km Length=0.0337107 bus1=udm2129.1.2 bus2=udm2128.1.2 switch=n enabled=y phases=2 Linecode=1P_UG_AL_1/0_Brenau_0_416_0_2_2

New Line.l(r:udm2126-udm2129) Units=km Length=0.00850309 bus1=udm2126.1.2 bus2=udm2129.1.2 switch=n enabled=y phases=2 Linecode=1P_UG_AL_1/0_Brenau_0_416_0_2_2

New Line.l(r:udm2126-udt530lv) Units=km Length=0.00672912 bus1=udt530lv.1.2 bus2=udm2126.1.2 switch=n enabled=y phases=2 Linecode=1P_UG_AL_4/0_Sweetbriar_0_416_0_2_2

New Line.l(r:p1ulv56222-udm2127) Units=km Length=0.0209627 bus1=udm2127.1.2 bus2=p1ulv56222.1.2 switch=n enabled=y phases=2 Linecode=1P_UG_AL_1/0_Brenau_0_416_0_2_2

New Line.l(r:p1ulv970-udm2125) Units=km Length=0.0136296 bus1=udm2125.1.2 bus2=p1ulv970.1.2 switch=n enabled=y phases=2 Linecode=1P_UG_AL_1/0_Brenau_0_416_0_2_2

New Line.l(r:udm2125-udm2127) Units=km Length=0.0195006 bus1=udm2127.1.2 bus2=udm2125.1.2 switch=n enabled=y phases=2 Linecode=1P_UG_AL_1/0_Brenau_0_416_0_2_2

New Line.l(r:udm2127-udt530lv) Units=km Length=0.0134757 bus1=udt530lv.1.2 bus2=udm2127.1.2 switch=n enabled=y phases=2 Linecode=1P_UG_AL_1/0_Brenau_0_416_0_2_2

New Line.l(r:p1ulv50304-udt531lv) Units=km Length=0.0121011 bus1=udt531lv.1.2 bus2=p1ulv50304.1.2 switch=n enabled=y phases=2 Linecode=1P_UG_AL_1/0_Brenau_0_416_0_2_2

New Line.l(r:p1ulv971-udm2130) Units=km Length=0.00472149 bus1=udm2130.1.2 bus2=p1ulv971.1.2 switch=n enabled=y phases=2 Linecode=1P_UG_AL_1/0_Brenau_0_416_0_2_2

New Line.l(r:p1ulv58720-udm2138) Units=km Length=0.0114062 bus1=udm2138.1.2 bus2=p1ulv58720.1.2 switch=n enabled=y phases=2 Linecode=1P_UG_AL_1/0_Brenau_0_416_0_2_2

New Line.l(r:p1ulv45411-udm2132) Units=km Length=0.0174735 bus1=udm2132.1.2 bus2=p1ulv45411.1.2 switch=n enabled=y phases=2 Linecode=1P_UG_AL_1/0_Brenau_0_416_0_2_2

New Line.l(r:p1ulv56486-udm2132) Units=km Length=0.00688585 bus1=udm2132.1.2 bus2=p1ulv56486.1.2 switch=n enabled=y phases=2 Linecode=1P_UG_AL_1/0_Brenau_0_416_0_2_2

New Line.l(r:udm2132-udm2138) Units=km Length=0.00965874 bus1=udm2138.1.2 bus2=udm2132.1.2 switch=n enabled=y phases=2 Linecode=1P_UG_AL_1/0_Brenau_0_416_0_2_2

New Line.l(r:udm2130-udm2138) Units=km Length=0.00965141 bus1=udm2130.1.2 bus2=udm2138.1.2 switch=n enabled=y phases=2 Linecode=1P_UG_AL_1/0_Brenau_0_416_0_2_2

New Line.l(r:udm2130-udt531lv) Units=km Length=0.00965194 bus1=udt531lv.1.2 bus2=udm2130.1.2 switch=n enabled=y phases=2 Linecode=1P_UG_AL_4/0_Sweetbriar_0_416_0_2_2

New Line.l(r:p1ulv53144-udm2135) Units=km Length=0.005064720000000001 bus1=udm2135.1.2 bus2=p1ulv53144.1.2 switch=n enabled=y phases=2 Linecode=1P_UG_AL_1/0_Brenau_0_416_0_2_2

New Line.l(r:p1ulv41418-udm2131) Units=km Length=0.00795586 bus1=udm2131.1.2 bus2=p1ulv41418.1.2 switch=n enabled=y phases=2 Linecode=1P_UG_AL_1/0_Brenau_0_416_0_2_2

New Line.l(r:p1ulv51301-udm2131) Units=km Length=0.0208228 bus1=udm2131.1.2 bus2=p1ulv51301.1.2 switch=n enabled=y phases=2 Linecode=1P_UG_AL_1/0_Brenau_0_416_0_2_2

New Line.l(r:p1ulv57710-udm2137) Units=km Length=0.0117442 bus1=udm2137.1.2 bus2=p1ulv57710.1.2 switch=n enabled=y phases=2 Linecode=1P_UG_AL_1/0_Brenau_0_416_0_2_2

New Line.l(r:udm2131-udm2137) Units=km Length=0.00965194 bus1=udm2131.1.2 bus2=udm2137.1.2 switch=n enabled=y phases=2 Linecode=1P_UG_AL_1/0_Brenau_0_416_0_2_2

New Line.l(r:udm2131-udm2135) Units=km Length=0.00965141 bus1=udm2135.1.2 bus2=udm2131.1.2 switch=n enabled=y phases=2 Linecode=1P_UG_AL_2/0_Converse_0_416_0_2_2

New Line.l(r:udm2135-udt531lv) Units=km Length=0.00965874 bus1=udt531lv.1.2 bus2=udm2135.1.2 switch=n enabled=y phases=2 Linecode=1P_UG_AL_4/0_Sweetbriar_0_416_0_2_2

New Line.l(r:p1ulv57768-udt532lv) Units=km Length=0.00859713 bus1=udt532lv.1.2 bus2=p1ulv57768.1.2 switch=n enabled=y phases=2 Linecode=1P_UG_AL_1/0_Brenau_0_416_0_2_2

New Line.l(r:p1ulv59796-udt532lv) Units=km Length=0.0065964000000000005 bus1=udt532lv.1.2 bus2=p1ulv59796.1.2 switch=n enabled=y phases=2 Linecode=1P_UG_AL_1/0_Brenau_0_416_0_2_2

New Line.l(r:p1ulv43514-udm2140) Units=km Length=0.00416559 bus1=udm2140.1.2 bus2=p1ulv43514.1.2 switch=n enabled=y phases=2 Linecode=1P_UG_AL_1/0_Brenau_0_416_0_2_2

New Line.l(r:p1ulv53901-udm2141) Units=km Length=0.00487497 bus1=udm2141.1.2 bus2=p1ulv53901.1.2 switch=n enabled=y phases=2 Linecode=1P_UG_AL_1/0_Brenau_0_416_0_2_2

New Line.l(r:p1ulv55982-udm2142) Units=km Length=0.00650083 bus1=udm2142.1.2 bus2=p1ulv55982.1.2 switch=n enabled=y phases=2 Linecode=1P_UG_AL_1/0_Brenau_0_416_0_2_2

New Line.l(r:udm2141-udm2142) Units=km Length=0.00893412 bus1=udm2141.1.2 bus2=udm2142.1.2 switch=n enabled=y phases=2 Linecode=1P_UG_AL_1/0_Brenau_0_416_0_2_2
