New Line.l(r:p1ulv341-udm782) Units=km Length=0.0147788 bus1=udm782.1.2 bus2=p1ulv341.1.2 switch=n enabled=y phases=2 Linecode=1P_UG_AL_1/0_Brenau_0_416_0_2_2

New Line.l(r:p1ulv9866-udm782) Units=km Length=0.0559297 bus1=udm782.1.2 bus2=p1ulv9866.1.2 switch=n enabled=y phases=2 Linecode=1P_UG_AL_1/0_Brenau_0_416_0_2_2

New Line.l(r:p1ulv338-udm781) Units=km Length=0.0185545 bus1=udm781.1.2 bus2=p1ulv338.1.2 switch=n enabled=y phases=2 Linecode=1P_UG_AL_1/0_Brenau_0_416_0_2_2

New Line.l(r:p1ulv56561-udm785) Units=km Length=0.0329267 bus1=udm785.1.2 bus2=p1ulv56561.1.2 switch=n enabled=y phases=2 Linecode=1P_UG_AL_1/0_Brenau_0_416_0_2_2

New Line.l(r:p1ulv59070-udm785) Units=km Length=0.0149291 bus1=udm785.1.2 bus2=p1ulv59070.1.2 switch=n enabled=y phases=2 Linecode=1P_UG_AL_1/0_Brenau_0_416_0_2_2

New Line.l(r:udm781-udm785) Units=km Length=0.0190794 bus1=udm781.1.2 bus2=udm785.1.2 switch=n enabled=y phases=2 Linecode=1P_UG_AL_1/0_Brenau_0_416_0_2_2

New Line.l(r:udm781-udm782) Units=km Length=0.009545430000000002 bus1=udm782.1.2 bus2=udm781.1.2 switch=n enabled=y phases=2 Linecode=1P_UG_AL_1/0_Brenau_0_416_0_2_2

New Line.l(r:udm782-udt213lv) Units=km Length=0.00953401 bus1=udt213lv.1.2 bus2=udm782.1.2 switch=n enabled=y phases=2 Linecode=1P_UG_AL_2/0_Converse_0_416_0_2_2

New Line.l(r:p1ulv50183-udm784) Units=km Length=0.029329 bus1=udm784.1.2 bus2=p1ulv50183.1.2 switch=n enabled=y phases=2 Linecode=1P_UG_AL_1/0_Brenau_0_416_0_2_2

New Line.l(r:udm784-udt213lv) Units=km Length=0.0858549 bus1=udt213lv.1.2 bus2=udm784.1.2 switch=n enabled=y phases=2 Linecode=1P_UG_AL_1/0_Brenau_0_416_0_2_2

New Line.l(r:p1ulv339-udm787) Units=km Length=0.0175383 bus1=udm787.1.2 bus2=p1ulv339.1.2 switch=n enabled=y phases=2 Linecode=1P_OH_AL_2/0_Rucina_0_416_0_2_2

New Line.l(r:p1ulv41935-udm788) Units=km Length=0.0188635 bus1=udm788.1.2 bus2=p1ulv41935.1.2 switch=n enabled=y phases=2 Linecode=1P_OH_AL_2/0_Rucina_0_416_0_2_2

New Line.l(r:udm787-udm788) Units=km Length=0.0136415 bus1=udm787.1.2 bus2=udm788.1.2 switch=n enabled=y phases=2 Linecode=1P_OH_AL_2/0_Rucina_0_416_0_2_2

New Line.l(r:udm787-udt214lv) Units=km Length=0.013636100000000002 bus1=udt214lv.1.2 bus2=udm787.1.2 switch=n enabled=y phases=2 Linecode=1P_OH_AL_2/0_Rucina_0_416_0_2_2

New Line.l(r:p1ulv48115-udm789) Units=km Length=0.0162293 bus1=udm789.1.2 bus2=p1ulv48115.1.2 switch=n enabled=y phases=2 Linecode=1P_OH_AL_2/0_Rucina_0_416_0_2_2

New Line.l(r:udm789-udt214lv) Units=km Length=0.0349964 bus1=udt214lv.1.2 bus2=udm789.1.2 switch=n enabled=y phases=2 Linecode=1P_OH_AL_4/0_Zuzara_0_416_0_2_2

New Line.l(r:p1ulv52202-udt216lv) Units=km Length=0.0359444 bus1=udt216lv.1.2 bus2=p1ulv52202.1.2 switch=n enabled=y phases=2 Linecode=1P_OH_AL_4/0_Zuzara_0_416_0_2_2

New Line.l(r:p1ulv53320-udt216lv) Units=km Length=0.0178185 bus1=udt216lv.1.2 bus2=p1ulv53320.1.2 switch=n enabled=y phases=2 Linecode=1P_OH_AL_2/0_Rucina_0_416_0_2_2

New Line.l(r:p1ulv59805-udt216lv) Units=km Length=0.021473 bus1=udt216lv.1.2 bus2=p1ulv59805.1.2 switch=n enabled=y phases=2 Linecode=1P_OH_AL_2/0_Rucina_0_416_0_2_2

New Line.l(r:p1ulv342-udm793) Units=km Length=0.0165699 bus1=udm793.1.2 bus2=p1ulv342.1.2 switch=n enabled=y phases=2 Linecode=1P_OH_AL_2/0_Rucina_0_416_0_2_2

New Line.l(r:udm793-udt216lv) Units=km Length=0.0168182 bus1=udt216lv.1.2 bus2=udm793.1.2 switch=n enabled=y phases=2 Linecode=1P_OH_AL_2/0_Rucina_0_416_0_2_2

New Line.l(r:p1ulv783-udm1461) Units=km Length=0.0213442 bus1=udm1461.1.2 bus2=p1ulv783.1.2 switch=n enabled=y phases=2 Linecode=1P_OH_AL_2/0_Rucina_0_416_0_2_2

New Line.l(r:p1ulv44679-udm1461) Units=km Length=0.0303179 bus1=udm1461.1.2 bus2=p1ulv44679.1.2 switch=n enabled=y phases=2 Linecode=1P_OH_AL_4/0_Zuzara_0_416_0_2_2

New Line.l(r:udm1461-udt370lv) Units=km Length=0.0478775 bus1=udt370lv.1.2 bus2=udm1461.1.2 switch=n enabled=y phases=2 Linecode=1P_OH_AL_4/0_Zuzara_0_416_0_2_2

New Line.l(r:p1ulv56802-udm1463) Units=km Length=0.0158635 bus1=udm1463.1.2 bus2=p1ulv56802.1.2 switch=n enabled=y phases=2 Linecode=1P_OH_AL_2/0_Rucina_0_416_0_2_2

New Line.l(r:udm1463-udt370lv) Units=km Length=0.0172791 bus1=udt370lv.1.2 bus2=udm1463.1.2 switch=n enabled=y phases=2 Linecode=1P_OH_AL_2/0_Rucina_0_416_0_2_2

New Line.l(r:p1ulv48191-udm1465) Units=km Length=0.0238428 bus1=udm1465.1.2 bus2=p1ulv48191.1.2 switch=n enabled=y phases=2 Linecode=1P_UG_AL_1/0_Brenau_0_416_0_2_2

New Line.l(r:p1ulv784-udm1464) Units=km Length=0.0361546 bus1=udm1464.1.2 bus2=p1ulv784.1.2 switch=n enabled=y phases=2 Linecode=1P_UG_AL_1/0_Brenau_0_416_0_2_2

New Line.l(r:udm1464-udm1465) Units=km Length=0.00930072 bus1=udm1465.1.2 bus2=udm1464.1.2 switch=n enabled=y phases=2 Linecode=1P_UG_AL_1/0_Brenau_0_416_0_2_2

New Line.l(r:udm1465-udt371lv) Units=km Length=0.00930072 bus1=udt371lv.1.2 bus2=udm1465.1.2 switch=n enabled=y phases=2 Linecode=1P_UG_AL_1/0_Brenau_0_416_0_2_2

New Line.l(r:p1ulv58675-udm1466) Units=km Length=0.0224304 bus1=udm1466.1.2 bus2=p1ulv58675.1.2 switch=n enabled=y phases=2 Linecode=1P_UG_AL_1/0_Brenau_0_416_0_2_2

New Line.l(r:udm1466-udt371lv) Units=km Length=0.0372029 bus1=udt371lv.1.2 bus2=udm1466.1.2 switch=n enabled=y phases=2 Linecode=1P_UG_AL_1/0_Brenau_0_416_0_2_2

New Line.l(r:p1ulv785-udt372lv) Units=km Length=0.0231511 bus1=udt372lv.1.2 bus2=p1ulv785.1.2 switch=n enabled=y phases=2 Linecode=1P_UG_AL_4/0_Sweetbriar_0_416_0_2_2

New Line.l(r:p1ulv786-udt373lv) Units=km Length=0.0332972 bus1=udt373lv.1.2 bus2=p1ulv786.1.2 switch=n enabled=y phases=2 Linecode=1P_OH_AL_4/0_Zuzara_0_416_0_2_2

New Line.l(r:p1ulv50324-udt373lv) Units=km Length=0.0255989 bus1=udt373lv.1.2 bus2=p1ulv50324.1.2 switch=n enabled=y phases=2 Linecode=1P_OH_AL_2/0_Rucina_0_416_0_2_2

New Line.l(r:p1ulv787-udm1470) Units=km Length=0.025979300000000004 bus1=udm1470.1.2 bus2=p1ulv787.1.2 switch=n enabled=y phases=2 Linecode=1P_UG_AL_1/0_Brenau_0_416_0_2_2

New Line.l(r:udm1470-udt374lv) Units=km Length=0.0277735 bus1=udt374lv.1.2 bus2=udm1470.1.2 switch=n enabled=y phases=2 Linecode=1P_UG_AL_1/0_Brenau_0_416_0_2_2

New Line.l(r:p1ulv43792-udm1471) Units=km Length=0.021745300000000002 bus1=udm1471.1.2 bus2=p1ulv43792.1.2 switch=n enabled=y phases=2 Linecode=1P_UG_AL_1/0_Brenau_0_416_0_2_2

New Line.l(r:p1ulv49997-udm1471) Units=km Length=0.0261375 bus1=udm1471.1.2 bus2=p1ulv49997.1.2 switch=n enabled=y phases=2 Linecode=1P_UG_AL_1/0_Brenau_0_416_0_2_2

New Line.l(r:udm1471-udt374lv) Units=km Length=0.00993558 bus1=udt374lv.1.2 bus2=udm1471.1.2 switch=n enabled=y phases=2 Linecode=1P_UG_AL_2/0_Converse_0_416_0_2_2

New Line.l(r:p1ulv51808-udt2343lv) Units=km Length=0.0168574 bus1=udt2343lv.1.2 bus2=p1ulv51808.1.2 switch=n enabled=y phases=2 Linecode=1P_UG_AL_1/0_Brenau_0_416_0_2_2

New Line.l(r:p1ulv5068-udm9367) Units=km Length=0.0194345 bus1=udm9367.1.2 bus2=p1ulv5068.1.2 switch=n enabled=y phases=2 Linecode=1P_UG_AL_1/0_Brenau_0_416_0_2_2

New Line.l(r:p1ulv59519-udm9370) Units=km Length=0.0180102 bus1=udm9370.1.2 bus2=p1ulv59519.1.2 switch=n enabled=y phases=2 Linecode=1P_UG_AL_1/0_Brenau_0_416_0_2_2

New Line.l(r:udm9367-udm9370) Units=km Length=0.030285200000000005 bus1=udm9367.1.2 bus2=udm9370.1.2 switch=n enabled=y phases=2 Linecode=1P_UG_AL_1/0_Brenau_0_416_0_2_2

New Line.l(r:udm9367-udt2343lv) Units=km Length=0.009327 bus1=udt2343lv.1.2 bus2=udm9367.1.2 switch=n enabled=y phases=2 Linecode=1P_UG_AL_2/0_Converse_0_416_0_2_2

New Line.l(r:p1ulv56023-udm9369) Units=km Length=0.0179967 bus1=udm9369.1.2 bus2=p1ulv56023.1.2 switch=n enabled=y phases=2 Linecode=1P_UG_AL_1/0_Brenau_0_416_0_2_2

New Line.l(r:p1ulv59913-udm9369) Units=km Length=0.014183100000000002 bus1=udm9369.1.2 bus2=p1ulv59913.1.2 switch=n enabled=y phases=2 Linecode=1P_UG_AL_1/0_Brenau_0_416_0_2_2

New Line.l(r:udm9369-udt2343lv) Units=km Length=0.0190541 bus1=udt2343lv.1.2 bus2=udm9369.1.2 switch=n enabled=y phases=2 Linecode=1P_UG_AL_1/0_Brenau_0_416_0_2_2

New Line.l(r:p1ulv54138-udt2345lv) Units=km Length=0.0201893 bus1=udt2345lv.1.2 bus2=p1ulv54138.1.2 switch=n enabled=y phases=2 Linecode=1P_UG_AL_1/0_Brenau_0_416_0_2_2

New Line.l(r:p1ulv5071-udm9378) Units=km Length=0.0209983 bus1=udm9378.1.2 bus2=p1ulv5071.1.2 switch=n enabled=y phases=2 Linecode=1P_UG_AL_1/0_Brenau_0_416_0_2_2

New Line.l(r:p1ulv44890-udm9378) Units=km Length=0.0136179 bus1=udm9378.1.2 bus2=p1ulv44890.1.2 switch=n enabled=y phases=2 Linecode=1P_UG_AL_1/0_Brenau_0_416_0_2_2

New Line.l(r:p1ulv41647-udm9379) Units=km Length=0.0154555 bus1=udm9379.1.2 bus2=p1ulv41647.1.2 switch=n enabled=y phases=2 Linecode=1P_UG_AL_1/0_Brenau_0_416_0_2_2

New Line.l(r:udm9378-udm9379) Units=km Length=0.00850485 bus1=udm9378.1.2 bus2=udm9379.1.2 switch=n enabled=y phases=2 Linecode=1P_UG_AL_1/0_Brenau_0_416_0_2_2

New Line.l(r:udm9378-udt2345lv) Units=km Length=0.0092634 bus1=udt2345lv.1.2 bus2=udm9378.1.2 switch=n enabled=y phases=2 Linecode=1P_UG_AL_4/0_Sweetbriar_0_416_0_2_2

New Line.l(r:p1ulv58641-udm9382) Units=km Length=0.0167057 bus1=udm9382.1.2 bus2=p1ulv58641.1.2 switch=n enabled=y phases=2 Linecode=1P_UG_AL_1/0_Brenau_0_416_0_2_2

New Line.l(r:udm9382-udt2345lv) Units=km Length=0.0185177 bus1=udt2345lv.1.2 bus2=udm9382.1.2 switch=n enabled=y phases=2 Linecode=1P_UG_AL_1/0_Brenau_0_416_0_2_2

New Line.l(r:p1ulv5081-udm9399) Units=km Length=0.0115392 bus1=udm9399.1.2 bus2=p1ulv5081.1.2 switch=n enabled=y phases=2 Linecode=1P_OH_AL_2/0_Rucina_0_416_0_2_2

New Line.l(r:udm9399-udt2353lv) Units=km Length=0.030101500000000003 bus1=udt2353lv.1.2 bus2=udm9399.1.2 switch=n enabled=y phases=2 Linecode=1P_OH_AL_4/0_Zuzara_0_416_0_2_2

New Line.l(r:p1ulv52814-udm9400) Units=km Length=0.0316506 bus1=udm9400.1.2 bus2=p1ulv52814.1.2 switch=n enabled=y phases=2 Linecode=1P_OH_AL_4/0_Zuzara_0_416_0_2_2

New Line.l(r:udm9400-udt2353lv) Units=km Length=0.053142400000000006 bus1=udt2353lv.1.2 bus2=udm9400.1.2 switch=n enabled=y phases=2 Linecode=1P_OH_AL_4/0_Zuzara_0_416_0_2_2

New Line.l(r:p1ulv6569-udt2998lv) Units=km Length=0.0139404 bus1=udt2998lv.1.2 bus2=p1ulv6569.1.2 switch=n enabled=y phases=2 Linecode=1P_OH_AL_2/0_Rucina_0_416_0_2_2

New Line.l(r:p1ulv6566-udm11935) Units=km Length=0.0102909 bus1=udm11935.1.2 bus2=p1ulv6566.1.2 switch=n enabled=y phases=2 Linecode=1P_OH_AL_2/0_Rucina_0_416_0_2_2

New Line.l(r:udm11935-udt2998lv) Units=km Length=0.017773700000000003 bus1=udt2998lv.1.2 bus2=udm11935.1.2 switch=n enabled=y phases=2 Linecode=1P_OH_AL_2/0_Rucina_0_416_0_2_2

New Line.l(r:p1ulv51647-udm11937) Units=km Length=0.0170146 bus1=udm11937.1.2 bus2=p1ulv51647.1.2 switch=n enabled=y phases=2 Linecode=1P_OH_AL_2/0_Rucina_0_416_0_2_2

New Line.l(r:udm11937-udt2998lv) Units=km Length=0.0355618 bus1=udt2998lv.1.2 bus2=udm11937.1.2 switch=n enabled=y phases=2 Linecode=1P_OH_AL_4/0_Zuzara_0_416_0_2_2

New Line.l(r:p1ulv6567-udm11938) Units=km Length=0.0218148 bus1=udm11938.1.2 bus2=p1ulv6567.1.2 switch=n enabled=y phases=2 Linecode=1P_OH_AL_2/0_Rucina_0_416_0_2_2

New Line.l(r:p1ulv6573-udm11938) Units=km Length=0.0215375 bus1=udm11938.1.2 bus2=p1ulv6573.1.2 switch=n enabled=y phases=2 Linecode=1P_OH_AL_2/0_Rucina_0_416_0_2_2

New Line.l(r:p1ulv49800-udm11938) Units=km Length=0.00950068 bus1=udm11938.1.2 bus2=p1ulv49800.1.2 switch=n enabled=y phases=2 Linecode=1P_OH_AL_2/0_Rucina_0_416_0_2_2

New Line.l(r:udm11938-udt2999lv) Units=km Length=0.0174247 bus1=udt2999lv.1.2 bus2=udm11938.1.2 switch=n enabled=y phases=2 Linecode=1P_OH_AL_2/0_Rucina_0_416_0_2_2

New Line.l(r:p1ulv6587-udm11940) Units=km Length=0.0221418 bus1=udm11940.1.2 bus2=p1ulv6587.1.2 switch=n enabled=y phases=2 Linecode=1P_OH_AL_2/0_Rucina_0_416_0_2_2

New Line.l(r:udm11940-udt2999lv) Units=km Length=0.0190132 bus1=udt2999lv.1.2 bus2=udm11940.1.2 switch=n enabled=y phases=2 Linecode=1P_OH_AL_2/0_Rucina_0_416_0_2_2

New Line.l(r:p1ulv6570-udt3001lv) Units=km Length=0.0178981 bus1=udt3001lv.1.2 bus2=p1ulv6570.1.2 switch=n enabled=y phases=2 Linecode=1P_UG_AL_4/0_Sweetbriar_0_416_0_2_2

New Line.l(r:p1ulv6571-udt3002lv) Units=km Length=0.0244702 bus1=udt3002lv.1.2 bus2=p1ulv6571.1.2 switch=n enabled=y phases=2 Linecode=1P_OH_AL_2/0_Rucina_0_416_0_2_2

New Line.l(r:p1ulv6572-udt3003lv) Units=km Length=0.0193482 bus1=udt3003lv.1.2 bus2=p1ulv6572.1.2 switch=n enabled=y phases=2 Linecode=1P_UG_AL_2/0_Converse_0_416_0_2_2

New Line.l(r:p1ulv6582-udm11951) Units=km Length=0.0489068 bus1=udm11951.1.2 bus2=p1ulv6582.1.2 switch=n enabled=y phases=2 Linecode=1P_UG_AL_1/0_Brenau_0_416_0_2_2

New Line.l(r:p1ulv6575-udm11949) Units=km Length=0.0328205 bus1=udm11949.1.2 bus2=p1ulv6575.1.2 switch=n enabled=y phases=2 Linecode=1P_UG_AL_1/0_Brenau_0_416_0_2_2

New Line.l(r:udm11949-udm11951) Units=km Length=0.008328390000000001 bus1=udm11951.1.2 bus2=udm11949.1.2 switch=n enabled=y phases=2 Linecode=1P_UG_AL_1/0_Brenau_0_416_0_2_2

New Line.l(r:udm11951-udt3005lv) Units=km Length=0.00970124 bus1=udt3005lv.1.2 bus2=udm11951.1.2 switch=n enabled=y phases=2 Linecode=1P_UG_AL_4/0_Sweetbriar_0_416_0_2_2

New Line.l(r:p1ulv6583-udm11952) Units=km Length=0.03795710000000001 bus1=udm11952.1.2 bus2=p1ulv6583.1.2 switch=n enabled=y phases=2 Linecode=1P_UG_AL_1/0_Brenau_0_416_0_2_2

New Line.l(r:p1ulv6577-udm11950) Units=km Length=0.0377569 bus1=udm11950.1.2 bus2=p1ulv6577.1.2 switch=n enabled=y phases=2 Linecode=1P_UG_AL_1/0_Brenau_0_416_0_2_2

New Line.l(r:udm11950-udm11952) Units=km Length=0.00969903 bus1=udm11952.1.2 bus2=udm11950.1.2 switch=n enabled=y phases=2 Linecode=1P_UG_AL_1/0_Brenau_0_416_0_2_2

New Line.l(r:udm11952-udt3005lv) Units=km Length=0.00968928 bus1=udt3005lv.1.2 bus2=udm11952.1.2 switch=n enabled=y phases=2 Linecode=1P_UG_AL_1/0_Brenau_0_416_0_2_2

New Line.l(r:p1ulv6597-udm11955) Units=km Length=0.0408481 bus1=udm11955.1.2 bus2=p1ulv6597.1.2 switch=n enabled=y phases=2 Linecode=1P_UG_AL_4/0_Sweetbriar_0_416_0_2_2

New Line.l(r:p1ulv6578-udm11954) Units=km Length=0.0294794 bus1=udm11954.1.2 bus2=p1ulv6578.1.2 switch=n enabled=y phases=2 Linecode=1P_UG_AL_1/0_Brenau_0_416_0_2_2

New Line.l(r:udm11954-udm11955) Units=km Length=0.0188079 bus1=udm11955.1.2 bus2=udm11954.1.2 switch=n enabled=y phases=2 Linecode=1P_UG_AL_1/0_Brenau_0_416_0_2_2

New Line.l(r:udm11955-udt3007lv) Units=km Length=0.0760112 bus1=udt3007lv.1.2 bus2=udm11955.1.2 switch=n enabled=y phases=2 Linecode=1P_UG_AL_4/0_Sweetbriar_0_416_0_2_2

New Line.l(r:p1ulv40378-udm11956) Units=km Length=0.010749000000000002 bus1=udm11956.1.2 bus2=p1ulv40378.1.2 switch=n enabled=y phases=2 Linecode=1P_UG_AL_1/0_Brenau_0_416_0_2_2

New Line.l(r:udm11956-udt3007lv) Units=km Length=0.00959471 bus1=udt3007lv.1.2 bus2=udm11956.1.2 switch=n enabled=y phases=2 Linecode=1P_UG_AL_1/0_Brenau_0_416_0_2_2

New Line.l(r:p1ulv6579-udt3008lv) Units=km Length=0.0133355 bus1=udt3008lv.1.2 bus2=p1ulv6579.1.2 switch=n enabled=y phases=2 Linecode=1P_OH_AL_2/0_Rucina_0_416_0_2_2

New Line.l(r:p1ulv6584-udt3008lv) Units=km Length=0.0115945 bus1=udt3008lv.1.2 bus2=p1ulv6584.1.2 switch=n enabled=y phases=2 Linecode=1P_OH_AL_2/0_Rucina_0_416_0_2_2

New Line.l(r:p1ulv6586-udm11959) Units=km Length=0.0143771 bus1=udm11959.1.2 bus2=p1ulv6586.1.2 switch=n enabled=y phases=2 Linecode=1P_OH_AL_2/0_Rucina_0_416_0_2_2

New Line.l(r:udm11959-udt3008lv) Units=km Length=0.0177829 bus1=udt3008lv.1.2 bus2=udm11959.1.2 switch=n enabled=y phases=2 Linecode=1P_OH_AL_2/0_Rucina_0_416_0_2_2

New Line.l(r:p1ulv53035-udt3009lv) Units=km Length=0.019293900000000003 bus1=udt3009lv.1.2 bus2=p1ulv53035.1.2 switch=n enabled=y phases=2 Linecode=1P_OH_AL_2/0_Rucina_0_416_0_2_2

New Line.l(r:p1ulv6580-udm11960) Units=km Length=0.0473789 bus1=udm11960.1.2 bus2=p1ulv6580.1.2 switch=n enabled=y phases=2 Linecode=1P_OH_AL_4/0_Zuzara_0_416_0_2_2

New Line.l(r:udm11960-udt3009lv) Units=km Length=0.0182023 bus1=udt3009lv.1.2 bus2=udm11960.1.2 switch=n enabled=y phases=2 Linecode=1P_OH_AL_2/0_Rucina_0_416_0_2_2

New Line.l(r:p1ulv53690-udm11962) Units=km Length=0.020500600000000004 bus1=udm11962.1.2 bus2=p1ulv53690.1.2 switch=n enabled=y phases=2 Linecode=1P_OH_AL_2/0_Rucina_0_416_0_2_2

New Line.l(r:udm11962-udt3009lv) Units=km Length=0.0182023 bus1=udt3009lv.1.2 bus2=udm11962.1.2 switch=n enabled=y phases=2 Linecode=1P_OH_AL_2/0_Rucina_0_416_0_2_2

New Line.l(r:p1ulv57853-udt3010lv) Units=km Length=0.0237161 bus1=udt3010lv.1.2 bus2=p1ulv57853.1.2 switch=n enabled=y phases=2 Linecode=1P_UG_AL_1/0_Brenau_0_416_0_2_2

New Line.l(r:p1ulv60881-udt3010lv) Units=km Length=0.0164098 bus1=udt3010lv.1.2 bus2=p1ulv60881.1.2 switch=n enabled=y phases=2 Linecode=1P_UG_AL_1/0_Brenau_0_416_0_2_2

New Line.l(r:p1ulv6581-udm11963) Units=km Length=0.0160154 bus1=udm11963.1.2 bus2=p1ulv6581.1.2 switch=n enabled=y phases=2 Linecode=1P_UG_AL_1/0_Brenau_0_416_0_2_2

New Line.l(r:p1ulv50117-udm11963) Units=km Length=0.0426956 bus1=udm11963.1.2 bus2=p1ulv50117.1.2 switch=n enabled=y phases=2 Linecode=1P_UG_AL_1/0_Brenau_0_416_0_2_2

New Line.l(r:p1ulv51950-udm11963) Units=km Length=0.018357 bus1=udm11963.1.2 bus2=p1ulv51950.1.2 switch=n enabled=y phases=2 Linecode=1P_UG_AL_1/0_Brenau_0_416_0_2_2

New Line.l(r:udm11963-udt3010lv) Units=km Length=0.0197131 bus1=udt3010lv.1.2 bus2=udm11963.1.2 switch=n enabled=y phases=2 Linecode=1P_UG_AL_2/0_Converse_0_416_0_2_2

New Line.l(r:p1ulv53282-udm11966) Units=km Length=0.0227306 bus1=udm11966.1.2 bus2=p1ulv53282.1.2 switch=n enabled=y phases=2 Linecode=1P_UG_AL_1/0_Brenau_0_416_0_2_2

New Line.l(r:p1ulv58608-udm11966) Units=km Length=0.012537300000000001 bus1=udm11966.1.2 bus2=p1ulv58608.1.2 switch=n enabled=y phases=2 Linecode=1P_UG_AL_1/0_Brenau_0_416_0_2_2

New Line.l(r:p1ulv54040-udm11967) Units=km Length=0.00900169 bus1=udm11967.1.2 bus2=p1ulv54040.1.2 switch=n enabled=y phases=2 Linecode=1P_UG_AL_1/0_Brenau_0_416_0_2_2

New Line.l(r:udm11966-udm11967) Units=km Length=0.047841 bus1=udm11966.1.2 bus2=udm11967.1.2 switch=n enabled=y phases=2 Linecode=1P_UG_AL_1/0_Brenau_0_416_0_2_2

New Line.l(r:udm11966-udt3010lv) Units=km Length=0.0197131 bus1=udt3010lv.1.2 bus2=udm11966.1.2 switch=n enabled=y phases=2 Linecode=1P_UG_AL_2/0_Converse_0_416_0_2_2

New Line.l(r:p1ulv6588-udm11976) Units=km Length=0.0235201 bus1=udm11976.1.2 bus2=p1ulv6588.1.2 switch=n enabled=y phases=2 Linecode=1P_OH_AL_2/0_Rucina_0_416_0_2_2

New Line.l(r:p1ulv56673-udm11976) Units=km Length=0.0175609 bus1=udm11976.1.2 bus2=p1ulv56673.1.2 switch=n enabled=y phases=2 Linecode=1P_OH_AL_2/0_Rucina_0_416_0_2_2

New Line.l(r:udm11976-udt3012lv) Units=km Length=0.0187939 bus1=udt3012lv.1.2 bus2=udm11976.1.2 switch=n enabled=y phases=2 Linecode=1P_OH_AL_2/0_Rucina_0_416_0_2_2

New Line.l(r:p1ulv46837-udm11977) Units=km Length=0.0125907 bus1=udm11977.1.2 bus2=p1ulv46837.1.2 switch=n enabled=y phases=2 Linecode=1P_OH_AL_2/0_Rucina_0_416_0_2_2

New Line.l(r:udm11977-udt3012lv) Units=km Length=0.0187846 bus1=udt3012lv.1.2 bus2=udm11977.1.2 switch=n enabled=y phases=2 Linecode=1P_OH_AL_2/0_Rucina_0_416_0_2_2

New Line.l(r:p1ulv6589-udt3013lv) Units=km Length=0.0220952 bus1=udt3013lv.1.2 bus2=p1ulv6589.1.2 switch=n enabled=y phases=2 Linecode=1P_OH_AL_2/0_Rucina_0_416_0_2_2

New Line.l(r:p1ulv59880-udt3013lv) Units=km Length=0.0166745 bus1=udt3013lv.1.2 bus2=p1ulv59880.1.2 switch=n enabled=y phases=2 Linecode=1P_OH_AL_2/0_Rucina_0_416_0_2_2

New Line.l(r:p1ulv55123-udm11980) Units=km Length=0.0156227 bus1=udm11980.1.2 bus2=p1ulv55123.1.2 switch=n enabled=y phases=2 Linecode=1P_OH_AL_2/0_Rucina_0_416_0_2_2

New Line.l(r:udm11980-udt3013lv) Units=km Length=0.0190171 bus1=udt3013lv.1.2 bus2=udm11980.1.2 switch=n enabled=y phases=2 Linecode=1P_OH_AL_2/0_Rucina_0_416_0_2_2

New Line.l(r:p1ulv6592-udt3015lv) Units=km Length=0.0258677 bus1=udt3015lv.1.2 bus2=p1ulv6592.1.2 switch=n enabled=y phases=2 Linecode=1P_OH_AL_2/0_Rucina_0_416_0_2_2

New Line.l(r:p1ulv59775-udt3015lv) Units=km Length=0.0170082 bus1=udt3015lv.1.2 bus2=p1ulv59775.1.2 switch=n enabled=y phases=2 Linecode=1P_OH_AL_2/0_Rucina_0_416_0_2_2

New Line.l(r:p1ulv46402-udm11984) Units=km Length=0.0201605 bus1=udm11984.1.2 bus2=p1ulv46402.1.2 switch=n enabled=y phases=2 Linecode=1P_OH_AL_2/0_Rucina_0_416_0_2_2

New Line.l(r:p1ulv61199-udm11984) Units=km Length=0.0166244 bus1=udm11984.1.2 bus2=p1ulv61199.1.2 switch=n enabled=y phases=2 Linecode=1P_OH_AL_2/0_Rucina_0_416_0_2_2

New Line.l(r:udm11984-udt3015lv) Units=km Length=0.0187846 bus1=udt3015lv.1.2 bus2=udm11984.1.2 switch=n enabled=y phases=2 Linecode=1P_OH_AL_2/0_Rucina_0_416_0_2_2

New Line.l(r:p1ulv6594-udt3017lv) Units=km Length=0.0235884 bus1=udt3017lv.1.2 bus2=p1ulv6594.1.2 switch=n enabled=y phases=2 Linecode=1P_OH_AL_2/0_Rucina_0_416_0_2_2

New Line.l(r:p1ulv44921-udm11990) Units=km Length=0.0202427 bus1=udm11990.1.2 bus2=p1ulv44921.1.2 switch=n enabled=y phases=2 Linecode=1P_OH_AL_2/0_Rucina_0_416_0_2_2

New Line.l(r:udm11990-udt3017lv) Units=km Length=0.0335402 bus1=udt3017lv.1.2 bus2=udm11990.1.2 switch=n enabled=y phases=2 Linecode=1P_OH_AL_4/0_Zuzara_0_416_0_2_2

New Line.l(r:p1ulv52393-udm11991) Units=km Length=0.0231626 bus1=udm11991.1.2 bus2=p1ulv52393.1.2 switch=n enabled=y phases=2 Linecode=1P_UG_AL_1/0_Brenau_0_416_0_2_2

New Line.l(r:udm11991-udt3017lv) Units=km Length=0.026402600000000002 bus1=udt3017lv.1.2 bus2=udm11991.1.2 switch=n enabled=y phases=2 Linecode=1P_OH_AL_2/0_Rucina_0_416_0_2_2

New Line.l(r:p1ulv6604-udm12006) Units=km Length=0.0901444 bus1=udm12006.1.2 bus2=p1ulv6604.1.2 switch=n enabled=y phases=2 Linecode=1P_UG_AL_1/0_Brenau_0_416_0_2_2

New Line.l(r:udm12006-udt3026lv) Units=km Length=0.00730415 bus1=udt3026lv.1.2 bus2=udm12006.1.2 switch=n enabled=y phases=2 Linecode=1P_UG_AL_1/0_Brenau_0_416_0_2_2

New Line.l(r:p1ulv41966-udm12007) Units=km Length=0.0563737 bus1=udm12007.1.2 bus2=p1ulv41966.1.2 switch=n enabled=y phases=2 Linecode=1P_UG_AL_4/0_Sweetbriar_0_416_0_2_2

New Line.l(r:udm12007-udt3026lv) Units=km Length=0.007070000000000001 bus1=udt3026lv.1.2 bus2=udm12007.1.2 switch=n enabled=y phases=2 Linecode=1P_UG_AL_4/0_Sweetbriar_0_416_0_2_2

New Line.l(r:p1ulv6609-udt3030lv) Units=km Length=0.0960076 bus1=udt3030lv.1.2 bus2=p1ulv6609.1.2 switch=n enabled=y phases=2 Linecode=1P_OH_AL_4/0_Zuzara_0_416_0_2_2

New Line.l(r:p1ulv41589-udm12013) Units=km Length=0.07474340000000002 bus1=udm12013.1.2 bus2=p1ulv41589.1.2 switch=n enabled=y phases=2 Linecode=1P_OH_AL_4/0_Zuzara_0_416_0_2_2

New Line.l(r:udm12013-udt3030lv) Units=km Length=0.0193057 bus1=udt3030lv.1.2 bus2=udm12013.1.2 switch=n enabled=y phases=2 Linecode=1P_OH_AL_2/0_Rucina_0_416_0_2_2

New Line.l(r:p1ulv6621-udt3041lv) Units=km Length=0.0361702 bus1=udt3041lv.1.2 bus2=p1ulv6621.1.2 switch=n enabled=y phases=2 Linecode=1P_OH_AL_4/0_Zuzara_0_416_0_2_2

New Line.l(r:p1ulv6628-udt3045lv) Units=km Length=0.001 bus1=udt3045lv.1.2 bus2=p1ulv6628.1.2 switch=n enabled=y phases=2 Linecode=1P_UG_AL_1/0_Brenau_0_416_0_2_2

New Line.l(r:p1ulv9478-udt4409lv) Units=km Length=0.0210603 bus1=udt4409lv.1.2 bus2=p1ulv9478.1.2 switch=n enabled=y phases=2 Linecode=1P_OH_AL_2/0_Rucina_0_416_0_2_2

New Line.l(r:p1ulv40078-udm16700) Units=km Length=0.019544000000000002 bus1=udm16700.1.2 bus2=p1ulv40078.1.2 switch=n enabled=y phases=2 Linecode=1P_UG_AL_1/0_Brenau_0_416_0_2_2

New Line.l(r:udm16700-udt4409lv) Units=km Length=0.0467384 bus1=udt4409lv.1.2 bus2=udm16700.1.2 switch=n enabled=y phases=2 Linecode=1P_OH_AL_4/0_Zuzara_0_416_0_2_2

New Line.l(r:p1ulv56448-udm16701) Units=km Length=0.020717 bus1=udm16701.1.2 bus2=p1ulv56448.1.2 switch=n enabled=y phases=2 Linecode=1P_UG_AL_1/0_Brenau_0_416_0_2_2

New Line.l(r:udm16701-udt4409lv) Units=km Length=0.00965994 bus1=udt4409lv.1.2 bus2=udm16701.1.2 switch=n enabled=y phases=2 Linecode=1P_OH_AL_2/0_Rucina_0_416_0_2_2

New Line.l(r:p1ulv9479-udt4410lv) Units=km Length=0.0277057 bus1=udt4410lv.1.2 bus2=p1ulv9479.1.2 switch=n enabled=y phases=2 Linecode=1P_OH_AL_4/0_Zuzara_0_416_0_2_2

New Line.l(r:p1ulv9480-udm16703) Units=km Length=0.0278909 bus1=udm16703.1.2 bus2=p1ulv9480.1.2 switch=n enabled=y phases=2 Linecode=1P_OH_AL_4/0_Zuzara_0_416_0_2_2

New Line.l(r:udm16703-udt4410lv) Units=km Length=0.0186365 bus1=udt4410lv.1.2 bus2=udm16703.1.2 switch=n enabled=y phases=2 Linecode=1P_OH_AL_2/0_Rucina_0_416_0_2_2

New Line.l(r:p1ulv56422-udm16704) Units=km Length=0.0280986 bus1=udm16704.1.2 bus2=p1ulv56422.1.2 switch=n enabled=y phases=2 Linecode=1P_OH_AL_4/0_Zuzara_0_416_0_2_2

New Line.l(r:udm16704-udt4410lv) Units=km Length=0.0193964 bus1=udt4410lv.1.2 bus2=udm16704.1.2 switch=n enabled=y phases=2 Linecode=1P_OH_AL_2/0_Rucina_0_416_0_2_2

New Line.l(r:p1ulv9482-udt4412lv) Units=km Length=0.0168142 bus1=udt4412lv.1.2 bus2=p1ulv9482.1.2 switch=n enabled=y phases=2 Linecode=1P_UG_AL_1/0_Brenau_0_416_0_2_2

New Line.l(r:p1ulv40315-udm16707) Units=km Length=0.0170673 bus1=udm16707.1.2 bus2=p1ulv40315.1.2 switch=n enabled=y phases=2 Linecode=1P_UG_AL_1/0_Brenau_0_416_0_2_2

New Line.l(r:udm16707-udt4412lv) Units=km Length=0.00990669 bus1=udt4412lv.1.2 bus2=udm16707.1.2 switch=n enabled=y phases=2 Linecode=1P_UG_AL_1/0_Brenau_0_416_0_2_2

New Line.l(r:p1ulv9492-udt4419lv) Units=km Length=0.0522402 bus1=udt4419lv.1.2 bus2=p1ulv9492.1.2 switch=n enabled=y phases=2 Linecode=1P_UG_AL_1/0_Brenau_0_416_0_2_2

New Line.l(r:p1ulv46899-udt4419lv) Units=km Length=0.0587258 bus1=udt4419lv.1.2 bus2=p1ulv46899.1.2 switch=n enabled=y phases=2 Linecode=1P_UG_AL_1/0_Brenau_0_416_0_2_2

New Line.l(r:p1ulv60715-udt4419lv) Units=km Length=0.0349508 bus1=udt4419lv.1.2 bus2=p1ulv60715.1.2 switch=n enabled=y phases=2 Linecode=1P_UG_AL_1/0_Brenau_0_416_0_2_2

New Line.l(r:p1ulv9493-udt4420lv) Units=km Length=0.014183100000000002 bus1=udt4420lv.1.2 bus2=p1ulv9493.1.2 switch=n enabled=y phases=2 Linecode=1P_UG_AL_1/0_Brenau_0_416_0_2_2

New Line.l(r:p1ulv46369-udm16729) Units=km Length=0.0132135 bus1=udm16729.1.2 bus2=p1ulv46369.1.2 switch=n enabled=y phases=2 Linecode=1P_UG_AL_1/0_Brenau_0_416_0_2_2

New Line.l(r:udm16729-udt4420lv) Units=km Length=0.0287268 bus1=udt4420lv.1.2 bus2=udm16729.1.2 switch=n enabled=y phases=2 Linecode=1P_UG_AL_1/0_Brenau_0_416_0_2_2

New Line.l(r:p1ulv56986-udm16730) Units=km Length=0.0125427 bus1=udm16730.1.2 bus2=p1ulv56986.1.2 switch=n enabled=y phases=2 Linecode=1P_UG_AL_1/0_Brenau_0_416_0_2_2

New Line.l(r:udm16730-udt4420lv) Units=km Length=0.0382935 bus1=udt4420lv.1.2 bus2=udm16730.1.2 switch=n enabled=y phases=2 Linecode=1P_UG_AL_1/0_Brenau_0_416_0_2_2

New Line.l(r:p1ulv9626-udt4476lv) Units=km Length=0.0191522 bus1=udt4476lv.1.2 bus2=p1ulv9626.1.2 switch=n enabled=y phases=2 Linecode=1P_UG_AL_4/0_Sweetbriar_0_416_0_2_2

New Line.l(r:p1ulv9623-udm16964) Units=km Length=0.0310237 bus1=udm16964.1.2 bus2=p1ulv9623.1.2 switch=n enabled=y phases=2 Linecode=1P_UG_AL_4/0_Sweetbriar_0_416_0_2_2

New Line.l(r:udm16964-udt4476lv) Units=km Length=0.0095234 bus1=udt4476lv.1.2 bus2=udm16964.1.2 switch=n enabled=y phases=2 Linecode=1P_UG_AL_4/0_Sweetbriar_0_416_0_2_2

New Line.l(r:p1ulv12387-udt4589lv) Units=km Length=0.0182469 bus1=udt4589lv.1.2 bus2=p1ulv12387.1.2 switch=n enabled=y phases=2 Linecode=1P_OH_AL_2/0_Rucina_0_416_0_2_2

New Line.l(r:p1ulv53911-udt4589lv) Units=km Length=0.0187173 bus1=udt4589lv.1.2 bus2=p1ulv53911.1.2 switch=n enabled=y phases=2 Linecode=1P_OH_AL_2/0_Rucina_0_416_0_2_2

New Line.l(r:p1ulv9861-udm17375) Units=km Length=0.0176778 bus1=udm17375.1.2 bus2=p1ulv9861.1.2 switch=n enabled=y phases=2 Linecode=1P_OH_AL_2/0_Rucina_0_416_0_2_2

New Line.l(r:p1ulv59360-udm17375) Units=km Length=0.0183213 bus1=udm17375.1.2 bus2=p1ulv59360.1.2 switch=n enabled=y phases=2 Linecode=1P_OH_AL_2/0_Rucina_0_416_0_2_2

New Line.l(r:udm17375-udt4589lv) Units=km Length=0.018172 bus1=udt4589lv.1.2 bus2=udm17375.1.2 switch=n enabled=y phases=2 Linecode=1P_OH_AL_2/0_Rucina_0_416_0_2_2

New Line.l(r:p1ulv48256-udm17377) Units=km Length=0.0185577 bus1=udm17377.1.2 bus2=p1ulv48256.1.2 switch=n enabled=y phases=2 Linecode=1P_OH_AL_2/0_Rucina_0_416_0_2_2

New Line.l(r:p1ulv59657-udm17377) Units=km Length=0.0209539 bus1=udm17377.1.2 bus2=p1ulv59657.1.2 switch=n enabled=y phases=2 Linecode=1P_OH_AL_2/0_Rucina_0_416_0_2_2

New Line.l(r:udm17377-udt4589lv) Units=km Length=0.0181616 bus1=udt4589lv.1.2 bus2=udm17377.1.2 switch=n enabled=y phases=2 Linecode=1P_OH_AL_2/0_Rucina_0_416_0_2_2

New Line.l(r:p1ulv46887-udt4591lv) Units=km Length=0.0280135 bus1=udt4591lv.1.2 bus2=p1ulv46887.1.2 switch=n enabled=y phases=2 Linecode=1P_OH_AL_4/0_Zuzara_0_416_0_2_2

New Line.l(r:p1ulv9863-udm17384) Units=km Length=0.097542 bus1=udm17384.1.2 bus2=p1ulv9863.1.2 switch=n enabled=y phases=2 Linecode=1P_OH_AL_4/0_Zuzara_0_416_0_2_2

New Line.l(r:udm17384-udt4591lv) Units=km Length=0.0268087 bus1=udt4591lv.1.2 bus2=udm17384.1.2 switch=n enabled=y phases=2 Linecode=1P_OH_AL_2/0_Rucina_0_416_0_2_2

New Line.l(r:p1ulv45171-udm17387) Units=km Length=0.0396698 bus1=udm17387.1.2 bus2=p1ulv45171.1.2 switch=n enabled=y phases=2 Linecode=1P_UG_AL_1/0_Brenau_0_416_0_2_2

New Line.l(r:p1ulv41605-udm17385) Units=km Length=0.060632 bus1=udm17385.1.2 bus2=p1ulv41605.1.2 switch=n enabled=y phases=2 Linecode=1P_UG_AL_2/0_Converse_0_416_0_2_2

New Line.l(r:p1ulv43652-udm17385) Units=km Length=0.026152 bus1=udm17385.1.2 bus2=p1ulv43652.1.2 switch=n enabled=y phases=2 Linecode=1P_UG_AL_1/0_Brenau_0_416_0_2_2

New Line.l(r:udm17385-udm17387) Units=km Length=0.00723161 bus1=udm17387.1.2 bus2=udm17385.1.2 switch=n enabled=y phases=2 Linecode=1P_UG_AL_4/0_Sweetbriar_0_416_0_2_2

New Line.l(r:udm17387-udt4591lv) Units=km Length=0.01341 bus1=udt4591lv.1.2 bus2=udm17387.1.2 switch=n enabled=y phases=2 Linecode=1P_OH_AL_2/0_Rucina_0_416_0_2_2

New Line.l(r:p1ulv9865-udt4593lv) Units=km Length=0.0322519 bus1=udt4593lv.1.2 bus2=p1ulv9865.1.2 switch=n enabled=y phases=2 Linecode=1P_UG_AL_1/0_Brenau_0_416_0_2_2

New Line.l(r:p1ulv10034-udt4663lv) Units=km Length=0.066345 bus1=udt4663lv.1.2 bus2=p1ulv10034.1.2 switch=n enabled=y phases=2 Linecode=1P_OH_AL_4/0_Zuzara_0_416_0_2_2

New Line.l(r:p1ulv52623-udt4663lv) Units=km Length=0.0301499 bus1=udt4663lv.1.2 bus2=p1ulv52623.1.2 switch=n enabled=y phases=2 Linecode=1P_OH_AL_4/0_Zuzara_0_416_0_2_2
