New Load.load_p1ulv338 conn=wye bus1=p1ulv338.1.2 kV=0.2080002494301389 Vminpu=0.8 Vmaxpu=1.2 model=1 kW=1.38001 kvar=0.28022298226153225 Phases=2

New Load.load_p1ulv339 conn=wye bus1=p1ulv339.1.2 kV=0.2080002494301389 Vminpu=0.8 Vmaxpu=1.2 model=1 kW=11.5 kvar=0.8101474048239126 Phases=2

New Load.load_p1ulv341 conn=wye bus1=p1ulv341.1.2 kV=0.2080002494301389 Vminpu=0.8 Vmaxpu=1.2 model=1 kW=1.76002 kvar=0.3601407008564061 Phases=2

New Load.load_p1ulv342 conn=wye bus1=p1ulv342.1.2 kV=0.2080002494301389 Vminpu=0.8 Vmaxpu=1.2 model=1 kW=3.37003 kvar=0.6807790649347335 Phases=2

New Load.load_p1ulv783 conn=wye bus1=p1ulv783.1.2 kV=0.2080002494301389 Vminpu=0.8 Vmaxpu=1.2 model=1 kW=2.48002 kvar=0.499683245129122 Phases=2

New Load.load_p1ulv784 conn=wye bus1=p1ulv784.1.2 kV=0.2080002494301389 Vminpu=0.8 Vmaxpu=1.2 model=1 kW=1.66002 kvar=0.33967839356123863 Phases=2

New Load.load_p1ulv785 conn=wye bus1=p1ulv785.1.2 kV=0.2080002494301389 Vminpu=0.8 Vmaxpu=1.2 model=1 kW=12.180100000000001 kvar=2.46689443242961 Phases=2

New Load.load_p1ulv786 conn=wye bus1=p1ulv786.1.2 kV=0.2080002494301389 Vminpu=0.8 Vmaxpu=1.2 model=1 kW=3.46003 kvar=0.7007765735124853 Phases=2

New Load.load_p1ulv787 conn=wye bus1=p1ulv787.1.2 kV=0.2080002494301389 Vminpu=0.8 Vmaxpu=1.2 model=1 kW=1.83002 kvar=0.3696819625973243 Phases=2

New Load.load_p1ulv4889 conn=wye bus1=p1ulv4889.1.2.3 kV=0.48 Vminpu=0.8 Vmaxpu=1.2 model=1 kW=30.250300000000003 kvar=6.14258540177682 Phases=3

New Load.load_p1ulv4896 conn=wye bus1=p1ulv4896.1.2.3 kV=0.48 Vminpu=0.8 Vmaxpu=1.2 model=1 kW=28.050299999999996 kvar=5.69585634838201 Phases=3

New Load.load_p1umv9 conn=wye bus1=p1umv9.1.2.3 kV=12.47 Vminpu=0.8 Vmaxpu=1.2 model=1 kW=1349.25 kvar=273.9768978604303 Phases=3

New Load.load_p1ulv5068 conn=wye bus1=p1ulv5068.1.2 kV=0.2080002494301389 Vminpu=0.8 Vmaxpu=1.2 model=1 kW=5.00005 kvar=1.010059068799659 Phases=2

New Load.load_p1ulv5071 conn=wye bus1=p1ulv5071.1.2 kV=0.2080002494301389 Vminpu=0.8 Vmaxpu=1.2 model=1 kW=5.44005 kvar=1.0989433780109366 Phases=2

New Load.load_p1ulv5076 conn=wye bus1=p1ulv5076.1.2.3 kV=0.48 Vminpu=0.8 Vmaxpu=1.2 model=1 kW=106.72100000000002 kvar=21.670623321521578 Phases=3

New Load.load_p1ulv5081 conn=wye bus1=p1ulv5081.1.2 kV=0.2080002494301389 Vminpu=0.8 Vmaxpu=1.2 model=1 kW=3.45003 kvar=0.7005584709471337 Phases=2

New Load.load_p1ulv6566 conn=wye bus1=p1ulv6566.1.2 kV=0.2080002494301389 Vminpu=0.8 Vmaxpu=1.2 model=1 kW=3.83004 kvar=0.7797245502085238 Phases=2

New Load.load_p1ulv6567 conn=wye bus1=p1ulv6567.1.2 kV=0.2080002494301389 Vminpu=0.8 Vmaxpu=1.2 model=1 kW=4.07004 kvar=0.8307064585474014 Phases=2

New Load.load_p1ulv6568 conn=wye bus1=p1ulv6568.1.2.3 kV=0.48 Vminpu=0.8 Vmaxpu=1.2 model=1 kW=21.380200000000002 kvar=4.341434776087139 Phases=3

New Load.load_p1ulv6569 conn=wye bus1=p1ulv6569.1.2 kV=0.2080002494301389 Vminpu=0.8 Vmaxpu=1.2 model=1 kW=3.9400400000000007 kvar=0.8000592452444024 Phases=2

New Load.load_p1ulv6570 conn=wye bus1=p1ulv6570.1.2 kV=0.2080002494301389 Vminpu=0.8 Vmaxpu=1.2 model=1 kW=10.8501 kvar=2.1975231140388423 Phases=2

New Load.load_p1ulv6571 conn=wye bus1=p1ulv6571.1.2 kV=0.2080002494301389 Vminpu=0.8 Vmaxpu=1.2 model=1 kW=16.9702 kvar=3.4459460826911785 Phases=2

New Load.load_p1ulv6572 conn=wye bus1=p1ulv6572.1.2 kV=0.2080002494301389 Vminpu=0.8 Vmaxpu=1.2 model=1 kW=9.8601 kvar=2.002178699717345 Phases=2

New Load.load_p1ulv6573 conn=wye bus1=p1ulv6573.1.2 kV=0.2080002494301389 Vminpu=0.8 Vmaxpu=1.2 model=1 kW=3.04003 kvar=0.6204785592224786 Phases=2

New Load.load_p1ulv6575 conn=wye bus1=p1ulv6575.1.2 kV=0.2080002494301389 Vminpu=0.8 Vmaxpu=1.2 model=1 kW=4.14004 kvar=0.8406709773712032 Phases=2

New Load.load_p1ulv6576 conn=wye bus1=p1ulv6576.1.2.3 kV=0.48 Vminpu=0.8 Vmaxpu=1.2 model=1 kW=31.830300000000005 kvar=6.463418085578546 Phases=3

New Load.load_p1ulv6577 conn=wye bus1=p1ulv6577.1.2 kV=0.2080002494301389 Vminpu=0.8 Vmaxpu=1.2 model=1 kW=4.05004 kvar=0.8202741461167985 Phases=2

New Load.load_p1ulv6578 conn=wye bus1=p1ulv6578.1.2 kV=0.2080002494301389 Vminpu=0.8 Vmaxpu=1.2 model=1 kW=3.83004 kvar=0.7797245502085238 Phases=2

New Load.load_p1ulv6579 conn=wye bus1=p1ulv6579.1.2 kV=0.2080002494301389 Vminpu=0.8 Vmaxpu=1.2 model=1 kW=3.77004 kvar=0.7596010602602379 Phases=2

New Load.load_p1ulv6580 conn=wye bus1=p1ulv6580.1.2 kV=0.2080002494301389 Vminpu=0.8 Vmaxpu=1.2 model=1 kW=15.2402 kvar=5.00921149974691 Phases=2

New Load.load_p1ulv6581 conn=wye bus1=p1ulv6581.1.2 kV=0.2080002494301389 Vminpu=0.8 Vmaxpu=1.2 model=1 kW=3.56004 kvar=0.7191629458284491 Phases=2

New Load.load_p1ulv6582 conn=wye bus1=p1ulv6582.1.2 kV=0.2080002494301389 Vminpu=0.8 Vmaxpu=1.2 model=1 kW=7.98008 kvar=1.6204243565522047 Phases=2

New Load.load_p1ulv6583 conn=wye bus1=p1ulv6583.1.2 kV=0.2080002494301389 Vminpu=0.8 Vmaxpu=1.2 model=1 kW=3.85004 kvar=0.7797671809452545 Phases=2

New Load.load_p1ulv6584 conn=wye bus1=p1ulv6584.1.2 kV=0.2080002494301389 Vminpu=0.8 Vmaxpu=1.2 model=1 kW=2.97003 kvar=0.5999751474699353 Phases=2

New Load.load_p1ulv6586 conn=wye bus1=p1ulv6586.1.2 kV=0.2080002494301389 Vminpu=0.8 Vmaxpu=1.2 model=1 kW=2.96003 kvar=0.5995091605836256 Phases=2

New Load.load_p1ulv6587 conn=wye bus1=p1ulv6587.1.2 kV=0.2080002494301389 Vminpu=0.8 Vmaxpu=1.2 model=1 kW=3.09003 kvar=0.6306836979747686 Phases=2

New Load.load_p1ulv6588 conn=wye bus1=p1ulv6588.1.2 kV=0.2080002494301389 Vminpu=0.8 Vmaxpu=1.2 model=1 kW=14.180100000000001 kvar=2.879392113656244 Phases=2

New Load.load_p1ulv6589 conn=wye bus1=p1ulv6589.1.2 kV=0.2080002494301389 Vminpu=0.8 Vmaxpu=1.2 model=1 kW=3.0300300000000004 kvar=0.6200140497357622 Phases=2

New Load.load_p1ulv6590 conn=wye bus1=p1ulv6590.1.2.3 kV=0.48 Vminpu=0.8 Vmaxpu=1.2 model=1 kW=237.29200000000003 kvar=77.9941086861028 Phases=3

New Load.load_p1ulv6592 conn=wye bus1=p1ulv6592.1.2 kV=0.2080002494301389 Vminpu=0.8 Vmaxpu=1.2 model=1 kW=11.8201 kvar=2.400173674559994 Phases=2

New Load.load_p1ulv6593 conn=wye bus1=p1ulv6593.1.2.3 kV=0.48 Vminpu=0.8 Vmaxpu=1.2 model=1 kW=22.9402 kvar=4.658206286676186 Phases=3

New Load.load_p1ulv6594 conn=wye bus1=p1ulv6594.1.2 kV=0.2080002494301389 Vminpu=0.8 Vmaxpu=1.2 model=1 kW=5.07005 kvar=1.0295175623474335 Phases=2

New Load.load_p1ulv6595 conn=wye bus1=p1ulv6595.1.2.3 kV=0.48 Vminpu=0.8 Vmaxpu=1.2 model=1 kW=24.130200000000002 kvar=4.899846092830651 Phases=3

New Load.load_p1ulv6597 conn=wye bus1=p1ulv6597.1.2 kV=0.2080002494301389 Vminpu=0.8 Vmaxpu=1.2 model=1 kW=15.5802 kvar=3.163694544409913 Phases=2

New Load.load_p1ulv6599 conn=wye bus1=p1ulv6599.1.2.3 kV=0.48 Vminpu=0.8 Vmaxpu=1.2 model=1 kW=35.9004 kvar=7.289887140225007 Phases=3

New Load.load_p1ulv6600 conn=wye bus1=p1ulv6600.1.2.3 kV=0.48 Vminpu=0.8 Vmaxpu=1.2 model=1 kW=29.780300000000004 kvar=6.047147831278839 Phases=3

New Load.load_p1ulv6601 conn=wye bus1=p1ulv6601.1.2.3 kV=0.48 Vminpu=0.8 Vmaxpu=1.2 model=1 kW=29.860299999999995 kvar=6.063392524129558 Phases=3

New Load.load_p1ulv6603 conn=wye bus1=p1ulv6603.1.2.3 kV=0.48 Vminpu=0.8 Vmaxpu=1.2 model=1 kW=28.1003 kvar=5.706009281413711 Phases=3

New Load.load_p1ulv6604 conn=wye bus1=p1ulv6604.1.2 kV=0.2080002494301389 Vminpu=0.8 Vmaxpu=1.2 model=1 kW=2.70003 kvar=0.5496756371472675 Phases=2

New Load.load_p1ulv6605 conn=wye bus1=p1ulv6605.1.2.3 kV=0.48 Vminpu=0.8 Vmaxpu=1.2 model=1 kW=30.1403 kvar=6.120248949107079 Phases=3

New Load.load_p1ulv6606 conn=wye bus1=p1ulv6606.1.2.3 kV=0.48 Vminpu=0.8 Vmaxpu=1.2 model=1 kW=22.1002 kvar=4.4876370117436215 Phases=3

New Load.load_p1ulv6607 conn=wye bus1=p1ulv6607.1.2.3 kV=0.48 Vminpu=0.8 Vmaxpu=1.2 model=1 kW=51.1805 kvar=10.392643780578657 Phases=3

New Load.load_p1ulv6608 conn=wye bus1=p1ulv6608.1.2.3 kV=0.48 Vminpu=0.8 Vmaxpu=1.2 model=1 kW=30.740300000000005 kvar=6.242084145487483 Phases=3

New Load.load_p1ulv6609 conn=wye bus1=p1ulv6609.1.2 kV=0.2080002494301389 Vminpu=0.8 Vmaxpu=1.2 model=1 kW=14.3501 kvar=2.906395004540861 Phases=2

New Load.load_p1ulv6610 conn=wye bus1=p1ulv6610.1.2.3 kV=0.48 Vminpu=0.8 Vmaxpu=1.2 model=1 kW=29.780300000000004 kvar=6.047147831278839 Phases=3

New Load.load_p1ulv6611 conn=wye bus1=p1ulv6611.1.2.3 kV=0.48 Vminpu=0.8 Vmaxpu=1.2 model=1 kW=19.9702 kvar=4.055122064593192 Phases=3

New Load.load_p1ulv6612 conn=wye bus1=p1ulv6612.1.2.3 kV=0.48 Vminpu=0.8 Vmaxpu=1.2 model=1 kW=29.940300000000004 kvar=6.079637216980278 Phases=3

New Load.load_p1ulv6614 conn=wye bus1=p1ulv6614.1.2.3 kV=0.48 Vminpu=0.8 Vmaxpu=1.2 model=1 kW=28.150300000000005 kvar=5.716162214445411 Phases=3

New Load.load_p1ulv6615 conn=wye bus1=p1ulv6615.1.2.3 kV=0.48 Vminpu=0.8 Vmaxpu=1.2 model=1 kW=31.270300000000002 kvar=6.349705235623506 Phases=3

New Load.load_p1ulv6616 conn=wye bus1=p1ulv6616.1.2.3 kV=0.48 Vminpu=0.8 Vmaxpu=1.2 model=1 kW=46.1605 kvar=9.373289304195957 Phases=3

New Load.load_p1ulv6618 conn=wye bus1=p1ulv6618.1.2.3 kV=0.48 Vminpu=0.8 Vmaxpu=1.2 model=1 kW=28.420300000000005 kvar=5.770988052816592 Phases=3

New Load.load_p1ulv6619 conn=wye bus1=p1ulv6619.1.2.3 kV=0.48 Vminpu=0.8 Vmaxpu=1.2 model=1 kW=29.2703 kvar=5.943587914355496 Phases=3

New Load.load_p1ulv6620 conn=wye bus1=p1ulv6620.1.2.3 kV=0.48 Vminpu=0.8 Vmaxpu=1.2 model=1 kW=30.070299999999996 kvar=6.106034842862699 Phases=3

New Load.load_p1ulv6621 conn=wye bus1=p1ulv6621.1.2 kV=0.2080002494301389 Vminpu=0.8 Vmaxpu=1.2 model=1 kW=18.7902 kvar=3.805669884831721 Phases=2

New Load.load_p1ulv6622 conn=wye bus1=p1ulv6622.1.2.3 kV=0.48 Vminpu=0.8 Vmaxpu=1.2 model=1 kW=24.2902 kvar=4.9323354785320905 Phases=3

New Load.load_p1ulv6623 conn=wye bus1=p1ulv6623.1.2.3 kV=0.48 Vminpu=0.8 Vmaxpu=1.2 model=1 kW=31.920300000000005 kvar=6.481693365035608 Phases=3

New Load.load_p1ulv6624 conn=wye bus1=p1ulv6624.1.2.3 kV=0.48 Vminpu=0.8 Vmaxpu=1.2 model=1 kW=27.840299999999996 kvar=5.653214029648868 Phases=3

New Load.load_p1ulv6625 conn=wye bus1=p1ulv6625.1.2.3 kV=0.48 Vminpu=0.8 Vmaxpu=1.2 model=1 kW=29.670300000000005 kvar=6.024811378609098 Phases=3

New Load.load_p1ulv6626 conn=wye bus1=p1ulv6626.1.2.3 kV=0.48 Vminpu=0.8 Vmaxpu=1.2 model=1 kW=31.690300000000004 kvar=6.434989873089786 Phases=3

New Load.load_p1ulv6627 conn=wye bus1=p1ulv6627.1.2.3 kV=0.48 Vminpu=0.8 Vmaxpu=1.2 model=1 kW=31.030300000000004 kvar=6.300971157071342 Phases=3

New Load.load_p1ulv6628 conn=wye bus1=p1ulv6628.1.2 kV=0.2080002494301389 Vminpu=0.8 Vmaxpu=1.2 model=1 kW=2.67003 kvar=0.5393722093713369 Phases=2

New Load.load_p1ulv9478 conn=wye bus1=p1ulv9478.1.2 kV=0.2080002494301389 Vminpu=0.8 Vmaxpu=1.2 model=1 kW=3.0100300000000004 kvar=0.6096359018765115 Phases=2

New Load.load_p1ulv9479 conn=wye bus1=p1ulv9479.1.2 kV=0.2080002494301389 Vminpu=0.8 Vmaxpu=1.2 model=1 kW=4.14004 kvar=1.3592956687066866 Phases=2

New Load.load_p1ulv9480 conn=wye bus1=p1ulv9480.1.2 kV=0.2080002494301389 Vminpu=0.8 Vmaxpu=1.2 model=1 kW=4.14004 kvar=1.3592956687066866 Phases=2

New Load.load_p1ulv9481 conn=wye bus1=p1ulv9481.1.2.3 kV=0.48 Vminpu=0.8 Vmaxpu=1.2 model=1 kW=253.28300000000002 kvar=51.43130674136252 Phases=3

New Load.load_p1ulv9482 conn=wye bus1=p1ulv9482.1.2 kV=0.2080002494301389 Vminpu=0.8 Vmaxpu=1.2 model=1 kW=2.81003 kvar=0.570600928141371 Phases=2

New Load.load_p1ulv9483 conn=wye bus1=p1ulv9483.1.2.3 kV=0.48 Vminpu=0.8 Vmaxpu=1.2 model=1 kW=58.4506 kvar=11.86890054925393 Phases=3

New Load.load_p1ulv9484 conn=wye bus1=p1ulv9484.1.2.3 kV=0.48 Vminpu=0.8 Vmaxpu=1.2 model=1 kW=49.03050000000001 kvar=9.956067660215549 Phases=3

New Load.load_p1ulv9492 conn=wye bus1=p1ulv9492.1.2 kV=0.2080002494301389 Vminpu=0.8 Vmaxpu=1.2 model=1 kW=4.14004 kvar=1.3592956687066866 Phases=2

New Load.load_p1ulv9493 conn=wye bus1=p1ulv9493.1.2 kV=0.2080002494301389 Vminpu=0.8 Vmaxpu=1.2 model=1 kW=3.08003 kvar=0.6302452033833459 Phases=2

New Load.load_p1ulv9621 conn=wye bus1=p1ulv9621.1.2.3 kV=0.48 Vminpu=0.8 Vmaxpu=1.2 model=1 kW=24.2802 kvar=4.930304891925751 Phases=3

New Load.load_p1ulv9622 conn=wye bus1=p1ulv9622.1.2.3 kV=0.48 Vminpu=0.8 Vmaxpu=1.2 model=1 kW=30.240300000000005 kvar=6.14055481517048 Phases=3

New Load.load_p1ulv9623 conn=wye bus1=p1ulv9623.1.2 kV=0.2080002494301389 Vminpu=0.8 Vmaxpu=1.2 model=1 kW=15.8802 kvar=3.216293541585758 Phases=2

New Load.load_p1ulv9624 conn=wye bus1=p1ulv9624.1.2.3 kV=0.48 Vminpu=0.8 Vmaxpu=1.2 model=1 kW=50.5505 kvar=10.264716824379235 Phases=3

New Load.load_p1ulv9625 conn=wye bus1=p1ulv9625.1.2.3 kV=0.48 Vminpu=0.8 Vmaxpu=1.2 model=1 kW=40.8704 kvar=8.299088683576008 Phases=3

New Load.load_p1ulv9626 conn=wye bus1=p1ulv9626.1.2 kV=0.2080002494301389 Vminpu=0.8 Vmaxpu=1.2 model=1 kW=18.9802 kvar=3.8540939905655285 Phases=2

New Load.load_p1ulv9627 conn=wye bus1=p1ulv9627.1.2.3 kV=0.48 Vminpu=0.8 Vmaxpu=1.2 model=1 kW=23.6802 kvar=4.808469695545347 Phases=3

New Load.load_p1ulv9628 conn=wye bus1=p1ulv9628.1.2.3 kV=0.48 Vminpu=0.8 Vmaxpu=1.2 model=1 kW=26.8403 kvar=5.4501553690148645 Phases=3

New Load.load_p1ulv9861 conn=wye bus1=p1ulv9861.1.2 kV=0.2080002494301389 Vminpu=0.8 Vmaxpu=1.2 model=1 kW=3.36003 kvar=0.6805230909267135 Phases=2

New Load.load_p1ulv9863 conn=wye bus1=p1ulv9863.1.2 kV=0.2080002494301389 Vminpu=0.8 Vmaxpu=1.2 model=1 kW=2.58003 kvar=0.5198336154266855 Phases=2

New Load.load_p1ulv9865 conn=wye bus1=p1ulv9865.1.2 kV=0.2080002494301389 Vminpu=0.8 Vmaxpu=1.2 model=1 kW=5.16005 kvar=1.0504897247296356 Phases=2

New Load.load_p1ulv9866 conn=wye bus1=p1ulv9866.1.2 kV=0.2080002494301389 Vminpu=0.8 Vmaxpu=1.2 model=1 kW=1.7400200000000001 kvar=0.3496676317043298 Phases=2

New Load.load_p1ulv10034 conn=wye bus1=p1ulv10034.1.2 kV=0.2080002494301389 Vminpu=0.8 Vmaxpu=1.2 model=1 kW=13.7301 kvar=4.507991580011228 Phases=2

New Load.load_p1ulv10035 conn=wye bus1=p1ulv10035.1.2 kV=0.2080002494301389 Vminpu=0.8 Vmaxpu=1.2 model=1 kW=3.15003 kvar=0.6396408727569326 Phases=2

New Load.load_p1ulv10037 conn=wye bus1=p1ulv10037.1.2 kV=0.2080002494301389 Vminpu=0.8 Vmaxpu=1.2 model=1 kW=3.34003 kvar=0.679967673818805 Phases=2

New Load.load_p1ulv10038 conn=wye bus1=p1ulv10038.1.2 kV=0.2080002494301389 Vminpu=0.8 Vmaxpu=1.2 model=1 kW=3.40003 kvar=0.6904055379154336 Phases=2

New Load.load_p1ulv10039 conn=wye bus1=p1ulv10039.1.2 kV=0.2080002494301389 Vminpu=0.8 Vmaxpu=1.2 model=1 kW=2.94003 kvar=0.6000682817178988 Phases=2

New Load.load_p1ulv10040 conn=wye bus1=p1ulv10040.1.2 kV=0.2080002494301389 Vminpu=0.8 Vmaxpu=1.2 model=1 kW=12.5201 kvar=2.5423147370037964 Phases=2

New Load.load_p1ulv10043 conn=wye bus1=p1ulv10043.1.2 kV=0.2080002494301389 Vminpu=0.8 Vmaxpu=1.2 model=1 kW=2.05002 kvar=0.4194813920123917 Phases=2

New Load.load_p1ulv10044 conn=wye bus1=p1ulv10044.1.2 kV=0.2080002494301389 Vminpu=0.8 Vmaxpu=1.2 model=1 kW=1.38001 kvar=0.28022298226153225 Phases=2

New Load.load_p1ulv10045 conn=wye bus1=p1ulv10045.1.2 kV=0.2080002494301389 Vminpu=0.8 Vmaxpu=1.2 model=1 kW=7.22007 kvar=1.4698712893922927 Phases=2

New Load.load_p1ulv10046 conn=wye bus1=p1ulv10046.1.2 kV=0.2080002494301389 Vminpu=0.8 Vmaxpu=1.2 model=1 kW=1.38001 kvar=0.28022298226153225 Phases=2

New Load.load_p1ulv10047 conn=wye bus1=p1ulv10047.1.2 kV=0.2080002494301389 Vminpu=0.8 Vmaxpu=1.2 model=1 kW=1.38001 kvar=0.28022298226153225 Phases=2

New Load.load_p1ulv10048 conn=wye bus1=p1ulv10048.1.2.3 kV=0.48 Vminpu=0.8 Vmaxpu=1.2 model=1 kW=36.6704 kvar=7.446242308913192 Phases=3

New Load.load_p1ulv10049 conn=wye bus1=p1ulv10049.1.2 kV=0.2080002494301389 Vminpu=0.8 Vmaxpu=1.2 model=1 kW=1.38001 kvar=0.28022298226153225 Phases=2

New Load.load_p1ulv10050 conn=wye bus1=p1ulv10050.1.2 kV=0.2080002494301389 Vminpu=0.8 Vmaxpu=1.2 model=1 kW=1.38001 kvar=0.28022298226153225 Phases=2

New Load.load_p1ulv10051 conn=wye bus1=p1ulv10051.1.2 kV=0.2080002494301389 Vminpu=0.8 Vmaxpu=1.2 model=1 kW=1.38001 kvar=0.28022298226153225 Phases=2

New Load.load_p1ulv10052 conn=wye bus1=p1ulv10052.1.2 kV=0.2080002494301389 Vminpu=0.8 Vmaxpu=1.2 model=1 kW=1.38001 kvar=0.28022298226153225 Phases=2

New Load.load_p1ulv10053 conn=wye bus1=p1ulv10053.1.2 kV=0.2080002494301389 Vminpu=0.8 Vmaxpu=1.2 model=1 kW=1.38001 kvar=0.28022298226153225 Phases=2

New Load.load_p1ulv10054 conn=wye bus1=p1ulv10054.1.2 kV=0.2080002494301389 Vminpu=0.8 Vmaxpu=1.2 model=1 kW=1.38001 kvar=0.28022298226153225 Phases=2

New Load.load_p1ulv10055 conn=wye bus1=p1ulv10055.1.2 kV=0.2080002494301389 Vminpu=0.8 Vmaxpu=1.2 model=1 kW=1.38001 kvar=0.28022298226153225 Phases=2

New Load.load_p1ulv10056 conn=wye bus1=p1ulv10056.1.2 kV=0.2080002494301389 Vminpu=0.8 Vmaxpu=1.2 model=1 kW=1.38001 kvar=0.28022298226153225 Phases=2

New Load.load_p1ulv10057 conn=wye bus1=p1ulv10057.1.2 kV=0.2080002494301389 Vminpu=0.8 Vmaxpu=1.2 model=1 kW=1.38001 kvar=0.28022298226153225 Phases=2

New Load.load_p1ulv10058 conn=wye bus1=p1ulv10058.1.2 kV=0.2080002494301389 Vminpu=0.8 Vmaxpu=1.2 model=1 kW=1.38001 kvar=0.28022298226153225 Phases=2

New Load.load_p1ulv10059 conn=wye bus1=p1ulv10059.1.2 kV=0.2080002494301389 Vminpu=0.8 Vmaxpu=1.2 model=1 kW=10.1301 kvar=3.3296028538724016 Phases=2

New Load.load_p1ulv10060 conn=wye bus1=p1ulv10060.1.2 kV=0.2080002494301389 Vminpu=0.8 Vmaxpu=1.2 model=1 kW=1.38001 kvar=0.28022298226153225 Phases=2

New Load.load_p1ulv10061 conn=wye bus1=p1ulv10061.1.2 kV=0.2080002494301389 Vminpu=0.8 Vmaxpu=1.2 model=1 kW=2.32002 kvar=0.46988484668642644 Phases=2

New Load.load_p1ulv10062 conn=wye bus1=p1ulv10062.1.2 kV=0.2080002494301389 Vminpu=0.8 Vmaxpu=1.2 model=1 kW=1.38001 kvar=0.28022298226153225 Phases=2

New Load.load_p1ulv10063 conn=wye bus1=p1ulv10063.1.2 kV=0.2080002494301389 Vminpu=0.8 Vmaxpu=1.2 model=1 kW=1.38001 kvar=0.28022298226153225 Phases=2

New Load.load_p1ulv10064 conn=wye bus1=p1ulv10064.1.2 kV=0.2080002494301389 Vminpu=0.8 Vmaxpu=1.2 model=1 kW=14.760100000000001 kvar=2.997166136823967 Phases=2

New Load.load_p1ulv10065 conn=wye bus1=p1ulv10065.1.2 kV=0.2080002494301389 Vminpu=0.8 Vmaxpu=1.2 model=1 kW=8.76009 kvar=1.7788121424333347 Phases=2

New Load.load_p1ulv10066 conn=wye bus1=p1ulv10066.1.2 kV=0.2080002494301389 Vminpu=0.8 Vmaxpu=1.2 model=1 kW=3.0500300000000005 kvar=0.6193350066935321 Phases=2

New Load.load_p1ulv10067 conn=wye bus1=p1ulv10067.1.2 kV=0.2080002494301389 Vminpu=0.8 Vmaxpu=1.2 model=1 kW=4.14004 kvar=1.3592956687066866 Phases=2

New Load.load_p1ulv10068 conn=wye bus1=p1ulv10068.1.2 kV=0.2080002494301389 Vminpu=0.8 Vmaxpu=1.2 model=1 kW=4.01004 kvar=0.810067352976347 Phases=2

New Load.load_p1ulv10070 conn=wye bus1=p1ulv10070.1.2.3 kV=0.48 Vminpu=0.8 Vmaxpu=1.2 model=1 kW=35.3504 kvar=7.178204876876305 Phases=3

New Load.load_p1ulv10071 conn=wye bus1=p1ulv10071.1.2.3 kV=0.48 Vminpu=0.8 Vmaxpu=1.2 model=1 kW=29.400300000000005 kvar=5.969985540237916 Phases=3

New Load.load_p1ulv10072 conn=wye bus1=p1ulv10072.1.2 kV=0.2080002494301389 Vminpu=0.8 Vmaxpu=1.2 model=1 kW=4.14004 kvar=1.3592956687066866 Phases=2

New Load.load_p1ulv10073 conn=wye bus1=p1ulv10073.1.2 kV=0.2080002494301389 Vminpu=0.8 Vmaxpu=1.2 model=1 kW=4.14004 kvar=1.3592956687066866 Phases=2

New Load.load_p1ulv10074 conn=wye bus1=p1ulv10074.1.2 kV=0.2080002494301389 Vminpu=0.8 Vmaxpu=1.2 model=1 kW=4.14004 kvar=1.3592956687066866 Phases=2

New Load.load_p1ulv10075 conn=wye bus1=p1ulv10075.1.2 kV=0.2080002494301389 Vminpu=0.8 Vmaxpu=1.2 model=1 kW=2.8200300000000005 kvar=0.5696736784206362 Phases=2

New Load.load_p1ulv11933 conn=wye bus1=p1ulv11933.1.2 kV=0.2080002494301389 Vminpu=0.8 Vmaxpu=1.2 model=1 kW=3.23003 kvar=0.6592580864811803 Phases=2

New Load.load_p1ulv11934 conn=wye bus1=p1ulv11934.1.2 kV=0.2080002494301389 Vminpu=0.8 Vmaxpu=1.2 model=1 kW=3.23003 kvar=0.6507979259297981 Phases=2

New Load.load_p1ulv12372 conn=wye bus1=p1ulv12372.1.2 kV=0.2080002494301389 Vminpu=0.8 Vmaxpu=1.2 model=1 kW=3.88004 kvar=0.7899036155734878 Phases=2

New Load.load_p1ulv12373 conn=wye bus1=p1ulv12373.1.2 kV=0.2080002494301389 Vminpu=0.8 Vmaxpu=1.2 model=1 kW=4.01004 kvar=0.810067352976347 Phases=2

New Load.load_p1ulv12374 conn=wye bus1=p1ulv12374.1.2 kV=0.2080002494301389 Vminpu=0.8 Vmaxpu=1.2 model=1 kW=5.02005 kvar=1.0193646293157332 Phases=2

New Load.load_p1ulv12375 conn=wye bus1=p1ulv12375.1.2 kV=0.2080002494301389 Vminpu=0.8 Vmaxpu=1.2 model=1 kW=5.69006 kvar=1.1613570361770957 Phases=2

New Load.load_p1ulv12376 conn=wye bus1=p1ulv12376.1.2 kV=0.2080002494301389 Vminpu=0.8 Vmaxpu=1.2 model=1 kW=4.50005 kvar=0.9090541719686612 Phases=2

New Load.load_p1ulv12377 conn=wye bus1=p1ulv12377.1.2 kV=0.2080002494301389 Vminpu=0.8 Vmaxpu=1.2 model=1 kW=4.89005 kvar=0.9904054251855413 Phases=2

New Load.load_p1ulv12378 conn=wye bus1=p1ulv12378.1.2 kV=0.2080002494301389 Vminpu=0.8 Vmaxpu=1.2 model=1 kW=4.880050000000001 kvar=0.9909364168269728 Phases=2

New Load.load_p1ulv12379 conn=wye bus1=p1ulv12379.1.2 kV=0.2080002494301389 Vminpu=0.8 Vmaxpu=1.2 model=1 kW=4.26004 kvar=0.8605698013918458 Phases=2

New Load.load_p1ulv12380 conn=wye bus1=p1ulv12380.1.2 kV=0.2080002494301389 Vminpu=0.8 Vmaxpu=1.2 model=1 kW=4.07004 kvar=0.8307064585474014 Phases=2

New Load.load_p1ulv12381 conn=wye bus1=p1ulv12381.1.2 kV=0.2080002494301389 Vminpu=0.8 Vmaxpu=1.2 model=1 kW=4.78005 kvar=0.9706305507635722 Phases=2

New Load.load_p1ulv12382 conn=wye bus1=p1ulv12382.1.2 kV=0.2080002494301389 Vminpu=0.8 Vmaxpu=1.2 model=1 kW=6.020060000000001 kvar=1.219271803753023 Phases=2

New Load.load_p1ulv12383 conn=wye bus1=p1ulv12383.1.2 kV=0.2080002494301389 Vminpu=0.8 Vmaxpu=1.2 model=1 kW=4.47004 kvar=0.9100165868800613 Phases=2

New Load.load_p1ulv12384 conn=wye bus1=p1ulv12384.1.2 kV=0.2080002494301389 Vminpu=0.8 Vmaxpu=1.2 model=1 kW=3.7300400000000002 kvar=0.7593664194785962 Phases=2

New Load.load_p1ulv12385 conn=wye bus1=p1ulv12385.1.2 kV=0.2080002494301389 Vminpu=0.8 Vmaxpu=1.2 model=1 kW=4.29004 kvar=0.8711297764663039 Phases=2

New Load.load_p1ulv12386 conn=wye bus1=p1ulv12386.1.2 kV=0.2080002494301389 Vminpu=0.8 Vmaxpu=1.2 model=1 kW=7.36007 kvar=1.4906704957506258 Phases=2

New Load.load_p1ulv12387 conn=wye bus1=p1ulv12387.1.2 kV=0.2080002494301389 Vminpu=0.8 Vmaxpu=1.2 model=1 kW=3.84004 kvar=0.7797533791810017 Phases=2

New Load.load_p1ulv12388 conn=wye bus1=p1ulv12388.1.2 kV=0.2080002494301389 Vminpu=0.8 Vmaxpu=1.2 model=1 kW=3.7100400000000002 kvar=0.7494644148777485 Phases=2

New Load.load_p1ulv12389 conn=wye bus1=p1ulv12389.1.2 kV=0.2080002494301389 Vminpu=0.8 Vmaxpu=1.2 model=1 kW=3.95004 kvar=0.8000206635310265 Phases=2

New Load.load_p1ulv12390 conn=wye bus1=p1ulv12390.1.2 kV=0.2080002494301389 Vminpu=0.8 Vmaxpu=1.2 model=1 kW=3.6900400000000007 kvar=0.7492945800859013 Phases=2

New Load.load_p1ulv14627 conn=wye bus1=p1ulv14627.1.2 kV=0.2080002494301389 Vminpu=0.8 Vmaxpu=1.2 model=1 kW=1.39001 kvar=0.28006415575758703 Phases=2

New Load.load_p1ulv22967 conn=wye bus1=p1ulv22967.1.2 kV=0.2080002494301389 Vminpu=0.8 Vmaxpu=1.2 model=1 kW=3.62004 kvar=0.7407437090079797 Phases=2

New Load.load_p1ulv39612 conn=wye bus1=p1ulv39612.1.2 kV=0.2080002494301389 Vminpu=0.8 Vmaxpu=1.2 model=1 kW=7.53008 kvar=1.529047959266903 Phases=2

New Load.load_p1ulv39643 conn=wye bus1=p1ulv39643.1.2 kV=0.2080002494301389 Vminpu=0.8 Vmaxpu=1.2 model=1 kW=4.82005 kvar=0.9787528971889325 Phases=2

New Load.load_p1ulv39647 conn=wye bus1=p1ulv39647.1.2.3 kV=0.48 Vminpu=0.8 Vmaxpu=1.2 model=1 kW=35.6604 kvar=11.721006664320333 Phases=3

New Load.load_p1ulv39651 conn=wye bus1=p1ulv39651.1.2 kV=0.2080002494301389 Vminpu=0.8 Vmaxpu=1.2 model=1 kW=3.25003 kvar=0.659946738820333 Phases=2

New Load.load_p1ulv39652 conn=wye bus1=p1ulv39652.1.2 kV=0.2080002494301389 Vminpu=0.8 Vmaxpu=1.2 model=1 kW=4.86005 kvar=0.9894153325398525 Phases=2

New Load.load_p1ulv39693 conn=wye bus1=p1ulv39693.1.2 kV=0.2080002494301389 Vminpu=0.8 Vmaxpu=1.2 model=1 kW=5.560060000000001 kvar=1.129018336644702 Phases=2

New Load.load_p1ulv39702 conn=wye bus1=p1ulv39702.1.2 kV=0.2080002494301389 Vminpu=0.8 Vmaxpu=1.2 model=1 kW=3.7300400000000002 kvar=0.7593664194785962 Phases=2

New Load.load_p1ulv39723 conn=wye bus1=p1ulv39723.1.2.3 kV=0.48 Vminpu=0.8 Vmaxpu=1.2 model=1 kW=19.0002 kvar=6.251803472173173 Phases=3

New Load.load_p1ulv39733 conn=wye bus1=p1ulv39733.1.2.3 kV=0.48 Vminpu=0.8 Vmaxpu=1.2 model=1 kW=20.890199999999997 kvar=4.241936032376476 Phases=3

New Load.load_p1ulv39759 conn=wye bus1=p1ulv39759.1.2.3 kV=0.48 Vminpu=0.8 Vmaxpu=1.2 model=1 kW=46.5405 kvar=9.450451595236878 Phases=3

New Load.load_p1ulv39760 conn=wye bus1=p1ulv39760.1.2 kV=0.2080002494301389 Vminpu=0.8 Vmaxpu=1.2 model=1 kW=7.490070000000001 kvar=1.5209235822549367 Phases=2

New Load.load_p1ulv39762 conn=wye bus1=p1ulv39762.1.2.3 kV=0.48 Vminpu=0.8 Vmaxpu=1.2 model=1 kW=32.62029999999999 kvar=6.62383442747941 Phases=3

New Load.load_p1ulv39763 conn=wye bus1=p1ulv39763.1.2 kV=0.2080002494301389 Vminpu=0.8 Vmaxpu=1.2 model=1 kW=3.23003 kvar=0.6592580864811803 Phases=2

New Load.load_p1ulv39785 conn=wye bus1=p1ulv39785.1.2 kV=0.2080002494301389 Vminpu=0.8 Vmaxpu=1.2 model=1 kW=1.45001 kvar=0.28985337445853987 Phases=2

New Load.load_p1ulv39790 conn=wye bus1=p1ulv39790.1.2.3 kV=0.48 Vminpu=0.8 Vmaxpu=1.2 model=1 kW=19.910199999999996 kvar=4.042938544955152 Phases=3

New Load.load_p1ulv39825 conn=wye bus1=p1ulv39825.1.2 kV=0.2080002494301389 Vminpu=0.8 Vmaxpu=1.2 model=1 kW=3.63004 kvar=0.7409012375272501 Phases=2

New Load.load_p1ulv39827 conn=wye bus1=p1ulv39827.1.2 kV=0.2080002494301389 Vminpu=0.8 Vmaxpu=1.2 model=1 kW=3.37003 kvar=0.6807790649347335 Phases=2

New Load.load_p1ulv39830 conn=wye bus1=p1ulv39830.1.2 kV=0.2080002494301389 Vminpu=0.8 Vmaxpu=1.2 model=1 kW=2.93003 kvar=0.5995517424405946 Phases=2

New Load.load_p1ulv39857 conn=wye bus1=p1ulv39857.1.2 kV=0.2080002494301389 Vminpu=0.8 Vmaxpu=1.2 model=1 kW=9.08009 kvar=1.8390344469224207 Phases=2

New Load.load_p1ulv39883 conn=wye bus1=p1ulv39883.1.2 kV=0.2080002494301389 Vminpu=0.8 Vmaxpu=1.2 model=1 kW=3.2800300000000004 kvar=0.6694632252334703 Phases=2

New Load.load_p1ulv39885 conn=wye bus1=p1ulv39885.1.2 kV=0.2080002494301389 Vminpu=0.8 Vmaxpu=1.2 model=1 kW=4.76005 kvar=0.9690572018099246 Phases=2

New Load.load_p1ulv39888 conn=wye bus1=p1ulv39888.1.2 kV=0.2080002494301389 Vminpu=0.8 Vmaxpu=1.2 model=1 kW=3.10003 kvar=0.6294879397252322 Phases=2

New Load.load_p1ulv39923 conn=wye bus1=p1ulv39923.1.2.3 kV=0.48 Vminpu=0.8 Vmaxpu=1.2 model=1 kW=26.920300000000005 kvar=5.466400061865587 Phases=3

New Load.load_p1ulv39940 conn=wye bus1=p1ulv39940.1.2 kV=0.2080002494301389 Vminpu=0.8 Vmaxpu=1.2 model=1 kW=3.49003 kvar=0.7105048699136965 Phases=2

New Load.load_p1ulv39943 conn=wye bus1=p1ulv39943.1.2 kV=0.2080002494301389 Vminpu=0.8 Vmaxpu=1.2 model=1 kW=4.21004 kvar=0.8592808470538134 Phases=2

New Load.load_p1ulv39948 conn=wye bus1=p1ulv39948.1.2.3 kV=0.48 Vminpu=0.8 Vmaxpu=1.2 model=1 kW=31.710300000000004 kvar=6.439051046302467 Phases=3

New Load.load_p1ulv39977 conn=wye bus1=p1ulv39977.1.2.3 kV=0.48 Vminpu=0.8 Vmaxpu=1.2 model=1 kW=45.3805 kvar=9.21490354890143 Phases=3

New Load.load_p1ulv40003 conn=wye bus1=p1ulv40003.1.2 kV=0.2080002494301389 Vminpu=0.8 Vmaxpu=1.2 model=1 kW=4.840050000000001 kvar=0.9802786838926555 Phases=2

New Load.load_p1ulv40008 conn=wye bus1=p1ulv40008.1.2 kV=0.2080002494301389 Vminpu=0.8 Vmaxpu=1.2 model=1 kW=3.12003 kvar=0.6302766165192346 Phases=2

New Load.load_p1ulv40010 conn=wye bus1=p1ulv40010.1.2 kV=0.2080002494301389 Vminpu=0.8 Vmaxpu=1.2 model=1 kW=3.21003 kvar=0.6501428670480555 Phases=2

New Load.load_p1ulv40011 conn=wye bus1=p1ulv40011.1.2 kV=0.2080002494301389 Vminpu=0.8 Vmaxpu=1.2 model=1 kW=6.83007 kvar=1.3904745795455744 Phases=2

New Load.load_p1ulv40012 conn=wye bus1=p1ulv40012.1.2 kV=0.2080002494301389 Vminpu=0.8 Vmaxpu=1.2 model=1 kW=3.85004 kvar=0.7797671809452545 Phases=2

New Load.load_p1ulv40034 conn=wye bus1=p1ulv40034.1.2.3 kV=0.48 Vminpu=0.8 Vmaxpu=1.2 model=1 kW=46.0005 kvar=9.340799918494515 Phases=3

New Load.load_p1ulv40073 conn=wye bus1=p1ulv40073.1.2 kV=0.2080002494301389 Vminpu=0.8 Vmaxpu=1.2 model=1 kW=3.40003 kvar=0.6904055379154336 Phases=2

New Load.load_p1ulv40075 conn=wye bus1=p1ulv40075.1.2 kV=0.2080002494301389 Vminpu=0.8 Vmaxpu=1.2 model=1 kW=3.31003 kvar=0.6703963496338274 Phases=2

New Load.load_p1ulv40077 conn=wye bus1=p1ulv40077.1.2 kV=0.2080002494301389 Vminpu=0.8 Vmaxpu=1.2 model=1 kW=3.52004 kvar=0.7202814017128122 Phases=2

New Load.load_p1ulv40078 conn=wye bus1=p1ulv40078.1.2 kV=0.2080002494301389 Vminpu=0.8 Vmaxpu=1.2 model=1 kW=2.8200300000000005 kvar=0.5696736784206362 Phases=2

New Load.load_p1ulv40111 conn=wye bus1=p1ulv40111.1.2 kV=0.2080002494301389 Vminpu=0.8 Vmaxpu=1.2 model=1 kW=12.5401 kvar=2.5529299516636668 Phases=2

New Load.load_p1ulv40141 conn=wye bus1=p1ulv40141.1.2 kV=0.2080002494301389 Vminpu=0.8 Vmaxpu=1.2 model=1 kW=3.0500300000000005 kvar=0.6193350066935321 Phases=2

New Load.load_p1ulv40148 conn=wye bus1=p1ulv40148.1.2 kV=0.2080002494301389 Vminpu=0.8 Vmaxpu=1.2 model=1 kW=4.840050000000001 kvar=0.9802786838926555 Phases=2

New Load.load_p1ulv40169 conn=wye bus1=p1ulv40169.1.2 kV=0.2080002494301389 Vminpu=0.8 Vmaxpu=1.2 model=1 kW=17.5902 kvar=3.5718424522842627 Phases=2

New Load.load_p1ulv40209 conn=wye bus1=p1ulv40209.1.2 kV=0.2080002494301389 Vminpu=0.8 Vmaxpu=1.2 model=1 kW=5.21005 kvar=1.0606687900945995 Phases=2

New Load.load_p1ulv40211 conn=wye bus1=p1ulv40211.1.2 kV=0.2080002494301389 Vminpu=0.8 Vmaxpu=1.2 model=1 kW=2.75003 kvar=0.5598547025122315 Phases=2

New Load.load_p1ulv40241 conn=wye bus1=p1ulv40241.1.2.3 kV=0.48 Vminpu=0.8 Vmaxpu=1.2 model=1 kW=29.200299999999995 kvar=5.929373808111115 Phases=3

New Load.load_p1ulv40259 conn=wye bus1=p1ulv40259.1.2 kV=0.2080002494301389 Vminpu=0.8 Vmaxpu=1.2 model=1 kW=5.11005 kvar=1.0403106593646716 Phases=2

New Load.load_p1ulv40264 conn=wye bus1=p1ulv40264.1.2 kV=0.2080002494301389 Vminpu=0.8 Vmaxpu=1.2 model=1 kW=6.700070000000001 kvar=1.3605072403540732 Phases=2

New Load.load_p1ulv40311 conn=wye bus1=p1ulv40311.1.2 kV=0.2080002494301389 Vminpu=0.8 Vmaxpu=1.2 model=1 kW=2.90003 kvar=0.5903918986071232 Phases=2
