New Load.load_p1ulv292 conn=wye bus1=p1ulv292.1.2 kV=0.2080002494301389 Vminpu=0.8 Vmaxpu=1.2 model=1 kW=10.43 kvar=0.5995517424405946 Phases=2

New Load.load_p1ulv293 conn=wye bus1=p1ulv292.1.2 kV=0.2080002494301389 Vminpu=0.8 Vmaxpu=1.2 model=1 kW=10.51 kvar=0.6096359018765115 Phases=2

New Load.load_p1ulv294 conn=wye bus1=p1ulv294.1.2 kV=0.2080002494301389 Vminpu=0.8 Vmaxpu=1.2 model=1 kW=10.47 kvar=0.5999751474699353 Phases=2

New Load.load_p1ulv295 conn=wye bus1=p1ulv295.1.2 kV=0.2080002494301389 Vminpu=0.8 Vmaxpu=1.2 model=1 kW=18.15 kvar=0.6396408727569326 Phases=2

New Load.load_p1ulv296 conn=wye bus1=p1ulv295.1.2 kV=0.2080002494301389 Vminpu=0.8 Vmaxpu=1.2 model=1 kW=18.36 kvar=0.6805230909267135 Phases=2

New Load.load_p1ulv297 conn=wye bus1=p1ulv297.1.2 kV=0.2080002494301389 Vminpu=0.8 Vmaxpu=1.2 model=1 kW=10.03 kvar=0.5097594376956769 Phases=2

New Load.load_p1ulv298 conn=wye bus1=p1ulv297.1.2 kV=0.2080002494301389 Vminpu=0.8 Vmaxpu=1.2 model=1 kW=9.88 kvar=0.47953488966710467 Phases=2

New Load.load_p1ulv299 conn=wye bus1=p1ulv299.1.2 kV=0.2080002494301389 Vminpu=0.8 Vmaxpu=1.2 model=1 kW=10.32 kvar=0.5696736784206362 Phases=2

New Load.load_p1ulv300 conn=wye bus1=p1ulv300.1.2 kV=0.2080002494301389 Vminpu=0.8 Vmaxpu=1.2 model=1 kW=10.26 kvar=0.5604479951096709 Phases=2

New Load.load_p1ulv301 conn=wye bus1=p1ulv301.1.2 kV=0.2080002494301389 Vminpu=0.8 Vmaxpu=1.2 model=1 kW=10.42 kvar=0.5898746577868357 Phases=2

New Load.load_p1ulv302 conn=wye bus1=p1ulv302.1.2 kV=0.2080002494301389 Vminpu=0.8 Vmaxpu=1.2 model=1 kW=10.49 kvar=0.6102734204701886 Phases=2

New Load.load_p1ulv303 conn=wye bus1=p1ulv303.1.2 kV=0.2080002494301389 Vminpu=0.8 Vmaxpu=1.2 model=1 kW=9.27 kvar=0.36034298554586675 Phases=2

New Load.load_p1ulv304 conn=wye bus1=p1ulv304.1.2 kV=0.2080002494301389 Vminpu=0.8 Vmaxpu=1.2 model=1 kW=2.58003 kvar=0.5198336154266855 Phases=2

New Load.load_p1ulv305 conn=wye bus1=p1ulv305.1.2 kV=0.2080002494301389 Vminpu=0.8 Vmaxpu=1.2 model=1 kW=2.81003 kvar=0.570600928141371 Phases=2

New Load.load_p1ulv306 conn=wye bus1=p1ulv306.1.2 kV=0.2080002494301389 Vminpu=0.8 Vmaxpu=1.2 model=1 kW=8.26008 kvar=1.681597884796614 Phases=2

New Load.load_p1ulv307 conn=wye bus1=p1ulv307.1.2 kV=0.2080002494301389 Vminpu=0.8 Vmaxpu=1.2 model=1 kW=12.5901 kvar=1.0309123903570856 Phases=2

New Load.load_p1ulv308 conn=wye bus1=p1ulv308.1.2 kV=0.2080002494301389 Vminpu=0.8 Vmaxpu=1.2 model=1 kW=2.72003 kvar=0.5494726990544365 Phases=2

New Load.load_p1ulv309 conn=wye bus1=p1ulv309.1.2 kV=0.2080002494301389 Vminpu=0.8 Vmaxpu=1.2 model=1 kW=2.89003 kvar=0.5898631429656088 Phases=2

New Load.load_p1ulv310 conn=wye bus1=p1ulv310.1.2 kV=0.2080002494301389 Vminpu=0.8 Vmaxpu=1.2 model=1 kW=2.94003 kvar=0.6000682817178988 Phases=2

New Load.load_p1ulv311 conn=wye bus1=p1ulv311.1.2 kV=0.2080002494301389 Vminpu=0.8 Vmaxpu=1.2 model=1 kW=11.03 kvar=0.7204909600226704 Phases=2

New Load.load_p1ulv312 conn=wye bus1=p1ulv312.1.2 kV=0.2080002494301389 Vminpu=0.8 Vmaxpu=1.2 model=1 kW=3.53004 kvar=0.7204909600226704 Phases=2

New Load.load_p1ulv313 conn=wye bus1=p1ulv313.1.2 kV=0.2080002494301389 Vminpu=0.8 Vmaxpu=1.2 model=1 kW=2.52003 kvar=0.510393837206229 Phases=2

New Load.load_p1ulv314 conn=wye bus1=p1ulv313.1.2 kV=0.2080002494301389 Vminpu=0.8 Vmaxpu=1.2 model=1 kW=3.2600300000000004 kvar=0.6602696083409414 Phases=2

New Load.load_p1ulv315 conn=wye bus1=p1ulv315.1.2 kV=0.2080002494301389 Vminpu=0.8 Vmaxpu=1.2 model=1 kW=17.23 kvar=0.45048588006212237 Phases=2

New Load.load_p1ulv316 conn=wye bus1=p1ulv316.1.2 kV=0.2080002494301389 Vminpu=0.8 Vmaxpu=1.2 model=1 kW=17.46 kvar=0.49952836633286324 Phases=2

New Load.load_p1ulv3197 conn=wye bus1=p1ulv3197.1.2 kV=0.2080002494301389 Vminpu=0.8 Vmaxpu=1.2 model=1 kW=6.84007 kvar=1.3889354528428337 Phases=2

New Load.load_p1ulv3198 conn=wye bus1=p1ulv3197.1.2 kV=0.2080002494301389 Vminpu=0.8 Vmaxpu=1.2 model=1 kW=8.30008 kvar=1.689741137088585 Phases=2

New Load.load_p1ulv3199 conn=wye bus1=p1ulv3199.1.2 kV=0.2080002494301389 Vminpu=0.8 Vmaxpu=1.2 model=1 kW=16.9502 kvar=3.4418849094784987 Phases=2

New Load.load_p1ulv3200 conn=wye bus1=p1ulv3199.1.2 kV=0.2080002494301389 Vminpu=0.8 Vmaxpu=1.2 model=1 kW=9.06009 kvar=1.839729740623536 Phases=2

New Load.load_p1ulv3201 conn=wye bus1=p1ulv3201.1.2 kV=0.2080002494301389 Vminpu=0.8 Vmaxpu=1.2 model=1 kW=15.640200000000002 kvar=3.184052362422156 Phases=2

New Load.load_p1ulv3202 conn=wye bus1=p1ulv3201.1.2 kV=0.2080002494301389 Vminpu=0.8 Vmaxpu=1.2 model=1 kW=11.7401 kvar=2.3777791090522133 Phases=2

New Load.load_p1ulv3203 conn=wye bus1=p1ulv3203.1.2 kV=0.2080002494301389 Vminpu=0.8 Vmaxpu=1.2 model=1 kW=6.84007 kvar=1.3889354528428337 Phases=2

New Load.load_p1ulv3204 conn=wye bus1=p1ulv3203.1.2 kV=0.2080002494301389 Vminpu=0.8 Vmaxpu=1.2 model=1 kW=3.37003 kvar=0.6807790649347335 Phases=2

New Load.load_p1ulv3205 conn=wye bus1=p1ulv3205.1.2 kV=0.2080002494301389 Vminpu=0.8 Vmaxpu=1.2 model=1 kW=4.670050000000001 kvar=0.9507348841529898 Phases=2

New Load.load_p1ulv3206 conn=wye bus1=p1ulv3206.1.2 kV=0.2080002494301389 Vminpu=0.8 Vmaxpu=1.2 model=1 kW=8.01008 kvar=1.6307025579717946 Phases=2

New Load.load_p1ulv3207 conn=wye bus1=p1ulv3206.1.2 kV=0.2080002494301389 Vminpu=0.8 Vmaxpu=1.2 model=1 kW=6.79007 kvar=1.3787825198111334 Phases=2

New Load.load_p1ulv3208 conn=wye bus1=p1ulv3208.1.2 kV=0.2080002494301389 Vminpu=0.8 Vmaxpu=1.2 model=1 kW=11.8501 kvar=2.4124588496271655 Phases=2

New Load.load_p1ulv3209 conn=wye bus1=p1ulv3208.1.2 kV=0.2080002494301389 Vminpu=0.8 Vmaxpu=1.2 model=1 kW=6.52007 kvar=1.3205412420301414 Phases=2

New Load.load_p1ulv3210 conn=wye bus1=p1ulv3210.1.2 kV=0.2080002494301389 Vminpu=0.8 Vmaxpu=1.2 model=1 kW=8.66009 kvar=1.7585062763699344 Phases=2

New Load.load_p1ulv3211 conn=wye bus1=p1ulv3211.1.2 kV=0.2080002494301389 Vminpu=0.8 Vmaxpu=1.2 model=1 kW=9.22009 kvar=1.8722191263249766 Phases=2

New Load.load_p1ulv3212 conn=wye bus1=p1ulv3212.1.2.3 kV=0.48 Vminpu=0.8 Vmaxpu=1.2 model=1 kW=25.6403 kvar=5.206484976254061 Phases=3

New Load.load_p1ulv3213 conn=wye bus1=p1ulv3213.1.2 kV=0.2080002494301389 Vminpu=0.8 Vmaxpu=1.2 model=1 kW=17.1702 kvar=3.4865578148179805 Phases=2

New Load.load_p1ulv3214 conn=wye bus1=p1ulv3214.1.2.3 kV=0.48 Vminpu=0.8 Vmaxpu=1.2 model=1 kW=36.68039999999999 kvar=7.448272895519531 Phases=3

New Load.load_p1ulv3215 conn=wye bus1=p1ulv3215.1.2 kV=0.2080002494301389 Vminpu=0.8 Vmaxpu=1.2 model=1 kW=13.930100000000001 kvar=2.828627448497743 Phases=2

New Load.load_p1ulv3216 conn=wye bus1=p1ulv3215.1.2 kV=0.2080002494301389 Vminpu=0.8 Vmaxpu=1.2 model=1 kW=7.57008 kvar=1.5411267827601127 Phases=2

New Load.load_p1ulv3217 conn=wye bus1=p1ulv3217.1.2 kV=0.2080002494301389 Vminpu=0.8 Vmaxpu=1.2 model=1 kW=8.45008 kvar=1.7202783331834768 Phases=2

New Load.load_p1ulv3218 conn=wye bus1=p1ulv3218.1.2.3 kV=0.48 Vminpu=0.8 Vmaxpu=1.2 model=1 kW=51.3705 kvar=10.431224926099116 Phases=3

New Load.load_p1ulv3219 conn=wye bus1=p1ulv3219.1.2 kV=0.2080002494301389 Vminpu=0.8 Vmaxpu=1.2 model=1 kW=3.9400400000000007 kvar=0.8000592452444024 Phases=2

New Load.load_p1ulv3814 conn=wye bus1=p1ulv3814.1.2 kV=0.2080002494301389 Vminpu=0.8 Vmaxpu=1.2 model=1 kW=10.5501 kvar=2.142289175554809 Phases=2

New Load.load_p1ulv3815 conn=wye bus1=p1ulv3815.1.2 kV=0.2080002494301389 Vminpu=0.8 Vmaxpu=1.2 model=1 kW=3.2800300000000004 kvar=0.6694632252334703 Phases=2

New Load.load_p1ulv3816 conn=wye bus1=p1ulv3816.1.2 kV=0.2080002494301389 Vminpu=0.8 Vmaxpu=1.2 model=1 kW=3.35003 kvar=0.6802526048837334 Phases=2

New Load.load_p1ulv3817 conn=wye bus1=p1ulv3817.1.2 kV=0.2080002494301389 Vminpu=0.8 Vmaxpu=1.2 model=1 kW=3.31003 kvar=0.6703963496338274 Phases=2

New Load.load_p1ulv3818 conn=wye bus1=p1ulv3818.1.2 kV=0.2080002494301389 Vminpu=0.8 Vmaxpu=1.2 model=1 kW=3.59004 kvar=0.7308650364566972 Phases=2

New Load.load_p1ulv3819 conn=wye bus1=p1ulv3819.1.2 kV=0.2080002494301389 Vminpu=0.8 Vmaxpu=1.2 model=1 kW=3.51004 kvar=0.7109053401536299 Phases=2

New Load.load_p1ulv3820 conn=wye bus1=p1ulv3820.1.2 kV=0.2080002494301389 Vminpu=0.8 Vmaxpu=1.2 model=1 kW=3.45003 kvar=0.7005584709471337 Phases=2

New Load.load_p1ulv3821 conn=wye bus1=p1ulv3821.1.2 kV=0.2080002494301389 Vminpu=0.8 Vmaxpu=1.2 model=1 kW=3.21003 kvar=0.6501428670480555 Phases=2

New Load.load_p1ulv3822 conn=wye bus1=p1ulv3822.1.2 kV=0.2080002494301389 Vminpu=0.8 Vmaxpu=1.2 model=1 kW=2.84003 kvar=0.5796580042133189 Phases=2

New Load.load_p1ulv4534 conn=wye bus1=p1ulv4534.1.2 kV=0.2080002494301389 Vminpu=0.8 Vmaxpu=1.2 model=1 kW=2.85003 kvar=0.5802128332421591 Phases=2

New Load.load_p1ulv4550 conn=wye bus1=p1ulv4550.1.2 kV=0.2080002494301389 Vminpu=0.8 Vmaxpu=1.2 model=1 kW=3.51004 kvar=0.7109053401536299 Phases=2

New Load.load_p1ulv4572 conn=wye bus1=p1ulv4572.1.2 kV=0.2080002494301389 Vminpu=0.8 Vmaxpu=1.2 model=1 kW=4.98005 kvar=1.011242282890373 Phases=2

New Load.load_p1ulv4578 conn=wye bus1=p1ulv4578.1.2 kV=0.2080002494301389 Vminpu=0.8 Vmaxpu=1.2 model=1 kW=3.63004 kvar=0.7409012375272501 Phases=2

New Load.load_p1ulv4581 conn=wye bus1=p1ulv4581.1.2 kV=0.2080002494301389 Vminpu=0.8 Vmaxpu=1.2 model=1 kW=3.27003 kvar=0.660578085568534 Phases=2

New Load.load_p1ulv4584 conn=wye bus1=p1ulv4584.1.2 kV=0.2080002494301389 Vminpu=0.8 Vmaxpu=1.2 model=1 kW=3.67004 kvar=0.749065348529082 Phases=2

New Load.load_p1ulv4585 conn=wye bus1=p1ulv4585.1.2 kV=0.2080002494301389 Vminpu=0.8 Vmaxpu=1.2 model=1 kW=2.44002 kvar=0.5005510952023011 Phases=2

New Load.load_p1ulv4586 conn=wye bus1=p1ulv4586.1.2 kV=0.2080002494301389 Vminpu=0.8 Vmaxpu=1.2 model=1 kW=1.81002 kvar=0.37037185450398985 Phases=2

New Load.load_p1ulv4589 conn=wye bus1=p1ulv4589.1.2 kV=0.2080002494301389 Vminpu=0.8 Vmaxpu=1.2 model=1 kW=3.92004 kvar=0.8000910422905317 Phases=2

New Load.load_p1ulv4590 conn=wye bus1=p1ulv4590.1.2 kV=0.2080002494301389 Vminpu=0.8 Vmaxpu=1.2 model=1 kW=3.52004 kvar=0.7202814017128122 Phases=2

New Load.load_p1ulv4593 conn=wye bus1=p1ulv4593.1.2 kV=0.2080002494301389 Vminpu=0.8 Vmaxpu=1.2 model=1 kW=3.0100300000000004 kvar=0.6096359018765115 Phases=2

New Load.load_p1ulv4595 conn=wye bus1=p1ulv4595.1.2 kV=0.2080002494301389 Vminpu=0.8 Vmaxpu=1.2 model=1 kW=2.84003 kvar=0.5796580042133189 Phases=2

New Load.load_p1ulv4596 conn=wye bus1=p1ulv4596.1.2 kV=0.2080002494301389 Vminpu=0.8 Vmaxpu=1.2 model=1 kW=2.23002 kvar=0.45048588006212237 Phases=2

New Load.load_p1ulv4597 conn=wye bus1=p1ulv4597.1.2 kV=0.2080002494301389 Vminpu=0.8 Vmaxpu=1.2 model=1 kW=3.51004 kvar=0.7109053401536299 Phases=2

New Load.load_p1ulv4600 conn=wye bus1=p1ulv4600.1.2 kV=0.2080002494301389 Vminpu=0.8 Vmaxpu=1.2 model=1 kW=3.02003 kvar=0.6100756371530351 Phases=2

New Load.load_p1ulv4608 conn=wye bus1=p1ulv4608.1.2 kV=0.2080002494301389 Vminpu=0.8 Vmaxpu=1.2 model=1 kW=2.50002 kvar=0.510261019669997 Phases=2

New Load.load_p1ulv4610 conn=wye bus1=p1ulv4610.1.2 kV=0.2080002494301389 Vminpu=0.8 Vmaxpu=1.2 model=1 kW=2.7800300000000004 kvar=0.5601303263507202 Phases=2

New Load.load_p1ulv4612 conn=wye bus1=p1ulv4612.1.2 kV=0.2080002494301389 Vminpu=0.8 Vmaxpu=1.2 model=1 kW=3.20003 kvar=0.6497938057886328 Phases=2

New Load.load_p1ulv4616 conn=wye bus1=p1ulv4616.1.2 kV=0.2080002494301389 Vminpu=0.8 Vmaxpu=1.2 model=1 kW=3.12003 kvar=0.6302766165192346 Phases=2

New Load.load_p1ulv4617 conn=wye bus1=p1ulv4617.1.2 kV=0.2080002494301389 Vminpu=0.8 Vmaxpu=1.2 model=1 kW=3.0100300000000004 kvar=0.6096359018765115 Phases=2

New Load.load_p1ulv4618 conn=wye bus1=p1ulv4618.1.2 kV=0.2080002494301389 Vminpu=0.8 Vmaxpu=1.2 model=1 kW=3.83004 kvar=0.7797245502085238 Phases=2

New Load.load_p1ulv4623 conn=wye bus1=p1ulv4623.1.2 kV=0.2080002494301389 Vminpu=0.8 Vmaxpu=1.2 model=1 kW=4.4900400000000005 kvar=0.9093894694941951 Phases=2

New Load.load_p1ulv4629 conn=wye bus1=p1ulv4629.1.2 kV=0.2080002494301389 Vminpu=0.8 Vmaxpu=1.2 model=1 kW=3.09003 kvar=0.6306836979747686 Phases=2

New Load.load_p1ulv4636 conn=wye bus1=p1ulv4636.1.2 kV=0.2080002494301389 Vminpu=0.8 Vmaxpu=1.2 model=1 kW=6.26006 kvar=1.2711593990885048 Phases=2

New Load.load_p1ulv4637 conn=wye bus1=p1ulv4637.1.2 kV=0.2080002494301389 Vminpu=0.8 Vmaxpu=1.2 model=1 kW=2.09002 kvar=0.42000226641916955 Phases=2

New Load.load_p1ulv4639 conn=wye bus1=p1ulv4639.1.2 kV=0.2080002494301389 Vminpu=0.8 Vmaxpu=1.2 model=1 kW=1.96002 kvar=0.40004552114526587 Phases=2

New Load.load_p1ulv4642 conn=wye bus1=p1ulv4642.1.2 kV=0.2080002494301389 Vminpu=0.8 Vmaxpu=1.2 model=1 kW=3.47003 kvar=0.7100482018344989 Phases=2

New Load.load_p1ulv4643 conn=wye bus1=p1ulv4643.1.2 kV=0.2080002494301389 Vminpu=0.8 Vmaxpu=1.2 model=1 kW=7.51008 kvar=1.5210527449775426 Phases=2

New Load.load_p1ulv5718 conn=wye bus1=p1ulv5718.1.2.3 kV=0.48 Vminpu=0.8 Vmaxpu=1.2 model=1 kW=32.25030000000001 kvar=6.548702723044831 Phases=3

New Load.load_p1ulv5719 conn=wye bus1=p1ulv5719.1.2 kV=0.2080002494301389 Vminpu=0.8 Vmaxpu=1.2 model=1 kW=5.80006 kvar=1.1807837972142463 Phases=2

New Load.load_p1ulv5720 conn=wye bus1=p1ulv5720.1.2 kV=0.2080002494301389 Vminpu=0.8 Vmaxpu=1.2 model=1 kW=14.7801 kvar=3.0012273100366467 Phases=2

New Load.load_p1ulv5721 conn=wye bus1=p1ulv5721.1.2.3 kV=0.48 Vminpu=0.8 Vmaxpu=1.2 model=1 kW=36.7504 kvar=7.462487001763911 Phases=3

New Load.load_p1ulv5722 conn=wye bus1=p1ulv5722.1.2 kV=0.2080002494301389 Vminpu=0.8 Vmaxpu=1.2 model=1 kW=13.760100000000001 kvar=2.7868994572848065 Phases=2

New Load.load_p1ulv5723 conn=wye bus1=p1ulv5723.1.2 kV=0.2080002494301389 Vminpu=0.8 Vmaxpu=1.2 model=1 kW=14.4401 kvar=2.932187365421085 Phases=2

New Load.load_p1ulv6441 conn=wye bus1=p1ulv6441.1.2 kV=0.2080002494301389 Vminpu=0.8 Vmaxpu=1.2 model=1 kW=4.64005 kvar=0.9397717187211114 Phases=2

New Load.load_p1ulv6442 conn=wye bus1=p1ulv6442.1.2 kV=0.2080002494301389 Vminpu=0.8 Vmaxpu=1.2 model=1 kW=5.84006 kvar=1.1889270495062174 Phases=2

New Load.load_p1ulv6443 conn=wye bus1=p1ulv6443.1.2 kV=0.2080002494301389 Vminpu=0.8 Vmaxpu=1.2 model=1 kW=6.72007 kvar=1.3610482072016854 Phases=2

New Load.load_p1ulv6444 conn=wye bus1=p1ulv6444.1.2 kV=0.2080002494301389 Vminpu=0.8 Vmaxpu=1.2 model=1 kW=5.93006 kvar=1.2010436694258284 Phases=2

New Load.load_p1ulv6445 conn=wye bus1=p1ulv6445.1.2 kV=0.2080002494301389 Vminpu=0.8 Vmaxpu=1.2 model=1 kW=3.77004 kvar=0.7694756260336619 Phases=2

New Load.load_p1ulv6448 conn=wye bus1=p1ulv6448.1.2.3 kV=0.48 Vminpu=0.8 Vmaxpu=1.2 model=1 kW=48.6305 kvar=9.874844195961945 Phases=3

New Load.load_p1ulv6449 conn=wye bus1=p1ulv6449.1.2 kV=0.2080002494301389 Vminpu=0.8 Vmaxpu=1.2 model=1 kW=3.72004 kvar=0.7592704872813721 Phases=2

New Load.load_p1ulv6450 conn=wye bus1=p1ulv6450.1.2 kV=0.2080002494301389 Vminpu=0.8 Vmaxpu=1.2 model=1 kW=6.310060000000001 kvar=1.2813123321202051 Phases=2

New Load.load_p1ulv6451 conn=wye bus1=p1ulv6451.1.2.3 kV=0.48 Vminpu=0.8 Vmaxpu=1.2 model=1 kW=179.542 kvar=36.4575580475504 Phases=3

New Load.load_p1ulv6452 conn=wye bus1=p1ulv6452.1.2 kV=0.2080002494301389 Vminpu=0.8 Vmaxpu=1.2 model=1 kW=8.15008 kvar=1.6592039409936938 Phases=2

New Load.load_p1ulv6453 conn=wye bus1=p1ulv6453.1.2.3 kV=0.48 Vminpu=0.8 Vmaxpu=1.2 model=1 kW=27.960300000000004 kvar=5.67758106892495 Phases=3

New Load.load_p1ulv6454 conn=wye bus1=p1ulv6454.1.2 kV=0.2080002494301389 Vminpu=0.8 Vmaxpu=1.2 model=1 kW=4.42004 kvar=0.8998375215150975 Phases=2

New Load.load_p1ulv6455 conn=wye bus1=p1ulv6455.1.2 kV=0.2080002494301389 Vminpu=0.8 Vmaxpu=1.2 model=1 kW=9.13009 kvar=1.849161188215306 Phases=2

New Load.load_p1ulv6457 conn=wye bus1=p1ulv6457.1.2 kV=0.2080002494301389 Vminpu=0.8 Vmaxpu=1.2 model=1 kW=7.86008 kvar=1.6001653618769034 Phases=2

New Load.load_p1ulv6458 conn=wye bus1=p1ulv6458.1.2 kV=0.2080002494301389 Vminpu=0.8 Vmaxpu=1.2 model=1 kW=6.29006 kvar=1.280538637790892 Phases=2

New Load.load_p1ulv6459 conn=wye bus1=p1ulv6459.1.2 kV=0.2080002494301389 Vminpu=0.8 Vmaxpu=1.2 model=1 kW=5.810060000000001 kvar=1.1797830018032032 Phases=2

New Load.load_p1ulv6460 conn=wye bus1=p1ulv6460.1.2 kV=0.2080002494301389 Vminpu=0.8 Vmaxpu=1.2 model=1 kW=5.32005 kvar=1.0802822275059345 Phases=2

New Load.load_p1ulv6461 conn=wye bus1=p1ulv6461.1.2 kV=0.2080002494301389 Vminpu=0.8 Vmaxpu=1.2 model=1 kW=4.57005 kvar=0.9303767534230621 Phases=2

New Load.load_p1ulv6462 conn=wye bus1=p1ulv6462.1.2 kV=0.2080002494301389 Vminpu=0.8 Vmaxpu=1.2 model=1 kW=6.23006 kvar=1.271572534701827 Phases=2

New Load.load_p1ulv6463 conn=wye bus1=p1ulv6463.1.2 kV=0.2080002494301389 Vminpu=0.8 Vmaxpu=1.2 model=1 kW=5.14005 kvar=1.0410391316499712 Phases=2

New Load.load_p1ulv6464 conn=wye bus1=p1ulv6464.1.2 kV=0.2080002494301389 Vminpu=0.8 Vmaxpu=1.2 model=1 kW=6.16006 kvar=1.2508535330251045 Phases=2

New Load.load_p1ulv6465 conn=wye bus1=p1ulv6465.1.2 kV=0.2080002494301389 Vminpu=0.8 Vmaxpu=1.2 model=1 kW=5.83006 kvar=1.180790186840056 Phases=2

New Load.load_p1ulv6466 conn=wye bus1=p1ulv6466.1.2.3 kV=0.48 Vminpu=0.8 Vmaxpu=1.2 model=1 kW=128.251 kvar=26.042476284971688 Phases=3

New Load.load_p1ulv6467 conn=wye bus1=p1ulv6467.1.2 kV=0.2080002494301389 Vminpu=0.8 Vmaxpu=1.2 model=1 kW=4.89005 kvar=0.9904054251855413 Phases=2

New Load.load_p1ulv6468 conn=wye bus1=p1ulv6468.1.2 kV=0.2080002494301389 Vminpu=0.8 Vmaxpu=1.2 model=1 kW=6.41006 kvar=1.3016181981836055 Phases=2

New Load.load_p1ulv7904 conn=wye bus1=p1ulv7904.1.2 kV=0.2080002494301389 Vminpu=0.8 Vmaxpu=1.2 model=1 kW=3.57004 kvar=0.7193043493362031 Phases=2

New Load.load_p1ulv7908 conn=wye bus1=p1ulv7908.1.2 kV=0.2080002494301389 Vminpu=0.8 Vmaxpu=1.2 model=1 kW=3.49003 kvar=0.7105048699136965 Phases=2

New Load.load_p1ulv7909 conn=wye bus1=p1ulv7909.1.2 kV=0.2080002494301389 Vminpu=0.8 Vmaxpu=1.2 model=1 kW=5.91006 kvar=1.200088867866603 Phases=2

New Load.load_p1ulv7910 conn=wye bus1=p1ulv7910.1.2 kV=0.2080002494301389 Vminpu=0.8 Vmaxpu=1.2 model=1 kW=3.85004 kvar=0.7797671809452545 Phases=2

New Load.load_p1ulv7911 conn=wye bus1=p1ulv7911.1.2 kV=0.2080002494301389 Vminpu=0.8 Vmaxpu=1.2 model=1 kW=3.41003 kvar=0.6906498322195993 Phases=2

New Load.load_p1ulv7912 conn=wye bus1=p1ulv7912.1.2 kV=0.2080002494301389 Vminpu=0.8 Vmaxpu=1.2 model=1 kW=3.6900400000000007 kvar=0.7492945800859013 Phases=2

New Load.load_p1ulv7913 conn=wye bus1=p1ulv7913.1.2 kV=0.2080002494301389 Vminpu=0.8 Vmaxpu=1.2 model=1 kW=4.71005 kvar=0.9588781364449609 Phases=2

New Load.load_p1ulv7914 conn=wye bus1=p1ulv7914.1.2 kV=0.2080002494301389 Vminpu=0.8 Vmaxpu=1.2 model=1 kW=3.13003 kvar=0.6404763570309296 Phases=2

New Load.load_p1ulv7915 conn=wye bus1=p1ulv7915.1.2 kV=0.2080002494301389 Vminpu=0.8 Vmaxpu=1.2 model=1 kW=3.37003 kvar=0.6807790649347335 Phases=2

New Load.load_p1ulv7918 conn=wye bus1=p1ulv7918.1.2 kV=0.2080002494301389 Vminpu=0.8 Vmaxpu=1.2 model=1 kW=2.97003 kvar=0.5999751474699353 Phases=2

New Load.load_p1ulv7920 conn=wye bus1=p1ulv7920.1.2 kV=0.2080002494301389 Vminpu=0.8 Vmaxpu=1.2 model=1 kW=6.21006 kvar=1.2610064660568046 Phases=2

New Load.load_p1ulv7923 conn=wye bus1=p1ulv7923.1.2 kV=0.2080002494301389 Vminpu=0.8 Vmaxpu=1.2 model=1 kW=6.03006 kvar=1.2212971520116003 Phases=2

New Load.load_p1ulv7924 conn=wye bus1=p1ulv7924.1.2 kV=0.2080002494301389 Vminpu=0.8 Vmaxpu=1.2 model=1 kW=3.23003 kvar=0.6592580864811803 Phases=2

New Load.load_p1ulv7925 conn=wye bus1=p1ulv7925.1.2 kV=0.2080002494301389 Vminpu=0.8 Vmaxpu=1.2 model=1 kW=3.14003 kvar=0.6392514123589496 Phases=2

New Load.load_p1ulv7927 conn=wye bus1=p1ulv7927.1.2 kV=0.2080002494301389 Vminpu=0.8 Vmaxpu=1.2 model=1 kW=3.2800300000000004 kvar=0.6694632252334703 Phases=2

New Load.load_p1ulv7928 conn=wye bus1=p1ulv7928.1.2 kV=0.2080002494301389 Vminpu=0.8 Vmaxpu=1.2 model=1 kW=3.20003 kvar=0.6497938057886328 Phases=2

New Load.load_p1ulv7929 conn=wye bus1=p1ulv7929.1.2 kV=0.2080002494301389 Vminpu=0.8 Vmaxpu=1.2 model=1 kW=3.18003 kvar=0.6407237481987894 Phases=2

New Load.load_p1ulv7932 conn=wye bus1=p1ulv7932.1.2 kV=0.2080002494301389 Vminpu=0.8 Vmaxpu=1.2 model=1 kW=2.46002 kvar=0.49952836633286324 Phases=2

New Load.load_p1ulv7933 conn=wye bus1=p1ulv7933.1.2 kV=0.2080002494301389 Vminpu=0.8 Vmaxpu=1.2 model=1 kW=4.39004 kvar=0.8891359869084231 Phases=2

New Load.load_p1ulv7936 conn=wye bus1=p1ulv7936.1.2 kV=0.2080002494301389 Vminpu=0.8 Vmaxpu=1.2 model=1 kW=4.34004 kvar=0.8790092456155372 Phases=2

New Load.load_p1ulv7937 conn=wye bus1=p1ulv7937.1.2 kV=0.2080002494301389 Vminpu=0.8 Vmaxpu=1.2 model=1 kW=5.10005 kvar=1.0409343578723245 Phases=2

New Load.load_p1ulv7938 conn=wye bus1=p1ulv7938.1.2 kV=0.2080002494301389 Vminpu=0.8 Vmaxpu=1.2 model=1 kW=3.38003 kvar=0.6898735027380501 Phases=2

New Load.load_p1ulv7939 conn=wye bus1=p1ulv7939.1.2 kV=0.2080002494301389 Vminpu=0.8 Vmaxpu=1.2 model=1 kW=6.56007 kvar=1.3286426350644502 Phases=2

New Load.load_p1ulv7940 conn=wye bus1=p1ulv7940.1.2 kV=0.2080002494301389 Vminpu=0.8 Vmaxpu=1.2 model=1 kW=4.46004 kvar=0.910306540815263 Phases=2

New Load.load_p1ulv7941 conn=wye bus1=p1ulv7941.1.2 kV=0.2080002494301389 Vminpu=0.8 Vmaxpu=1.2 model=1 kW=8.19008 kvar=1.6587764265607916 Phases=2

New Load.load_p1ulv7942 conn=wye bus1=p1ulv7942.1.2 kV=0.2080002494301389 Vminpu=0.8 Vmaxpu=1.2 model=1 kW=2.93003 kvar=0.5903528595437461 Phases=2

New Load.load_p1ulv7943 conn=wye bus1=p1ulv7943.1.2 kV=0.2080002494301389 Vminpu=0.8 Vmaxpu=1.2 model=1 kW=11.7901 kvar=2.387905850345099 Phases=2

New Load.load_p1ulv7952 conn=wye bus1=p1ulv7952.1.2 kV=0.2080002494301389 Vminpu=0.8 Vmaxpu=1.2 model=1 kW=6.84007 kvar=1.3889354528428337 Phases=2

New Load.load_p1ulv7955 conn=wye bus1=p1ulv7955.1.2 kV=0.2080002494301389 Vminpu=0.8 Vmaxpu=1.2 model=1 kW=6.85007 kvar=1.3909660394491736 Phases=2

New Load.load_p1ulv7962 conn=wye bus1=p1ulv7962.1.2 kV=0.2080002494301389 Vminpu=0.8 Vmaxpu=1.2 model=1 kW=3.22003 kvar=0.6504775958854341 Phases=2

New Load.load_p1ulv8844 conn=wye bus1=p1ulv8844.1.2 kV=0.2080002494301389 Vminpu=0.8 Vmaxpu=1.2 model=1 kW=10.5001 kvar=2.1321362425231087 Phases=2

New Load.load_p1ulv8845 conn=wye bus1=p1ulv8845.1.2 kV=0.2080002494301389 Vminpu=0.8 Vmaxpu=1.2 model=1 kW=18.2502 kvar=3.705861168302705 Phases=2

New Load.load_p1ulv8846 conn=wye bus1=p1ulv8846.1.2 kV=0.2080002494301389 Vminpu=0.8 Vmaxpu=1.2 model=1 kW=6.350060000000001 kvar=1.2894346785455655 Phases=2

New Load.load_p1ulv8847 conn=wye bus1=p1ulv8847.1.2 kV=0.2080002494301389 Vminpu=0.8 Vmaxpu=1.2 model=1 kW=6.45006 kvar=1.3097405446089656 Phases=2

New Load.load_p1ulv8848 conn=wye bus1=p1ulv8848.1.2.3 kV=0.48 Vminpu=0.8 Vmaxpu=1.2 model=1 kW=105.441 kvar=21.410708235910047 Phases=3

New Load.load_p1ulv8849 conn=wye bus1=p1ulv8849.1.2.3 kV=0.48 Vminpu=0.8 Vmaxpu=1.2 model=1 kW=234.912 kvar=47.700916086855216 Phases=3

New Load.load_p1ulv8850 conn=wye bus1=p1ulv8850.1.2 kV=0.2080002494301389 Vminpu=0.8 Vmaxpu=1.2 model=1 kW=18.3002 kvar=3.7160141013344057 Phases=2

New Load.load_p1ulv8851 conn=wye bus1=p1ulv8851.1.2.3 kV=0.48 Vminpu=0.8 Vmaxpu=1.2 model=1 kW=52.1605 kvar=10.591641267999979 Phases=3

New Load.load_p1ulv8852 conn=wye bus1=p1ulv8852.1.2.3 kV=0.48 Vminpu=0.8 Vmaxpu=1.2 model=1 kW=22.7602 kvar=4.6216557277620645 Phases=3

New Load.load_p1ulv8853 conn=wye bus1=p1ulv8853.1.2.3 kV=0.48 Vminpu=0.8 Vmaxpu=1.2 model=1 kW=36.4904 kvar=7.4096917499990695 Phases=3

New Load.load_p1ulv8854 conn=wye bus1=p1ulv8854.1.2.3 kV=0.48 Vminpu=0.8 Vmaxpu=1.2 model=1 kW=59.0806 kvar=11.996827505453354 Phases=3

New Load.load_p1ulv8855 conn=wye bus1=p1ulv8855.1.2.3 kV=0.48 Vminpu=0.8 Vmaxpu=1.2 model=1 kW=27.840299999999996 kvar=5.653214029648868 Phases=3

New Load.load_p1ulv8856 conn=wye bus1=p1ulv8856.1.2.3 kV=0.48 Vminpu=0.8 Vmaxpu=1.2 model=1 kW=49.5105 kvar=10.053535817319869 Phases=3

New Load.load_p1ulv8857 conn=wye bus1=p1ulv8857.1.2.3 kV=0.48 Vminpu=0.8 Vmaxpu=1.2 model=1 kW=26.5703 kvar=5.395329530643684 Phases=3

New Load.load_p1ulv8858 conn=wye bus1=p1ulv8858.1.2 kV=0.2080002494301389 Vminpu=0.8 Vmaxpu=1.2 model=1 kW=3.06003 kvar=0.6197626431693976 Phases=2

New Load.load_p1ulv8859 conn=wye bus1=p1ulv8859.1.2 kV=0.2080002494301389 Vminpu=0.8 Vmaxpu=1.2 model=1 kW=3.56004 kvar=0.7191629458284491 Phases=2

New Load.load_p1ulv8860 conn=wye bus1=p1ulv8860.1.2 kV=0.2080002494301389 Vminpu=0.8 Vmaxpu=1.2 model=1 kW=2.7600300000000004 kvar=0.5604479951096709 Phases=2

New Load.load_p1ulv8861 conn=wye bus1=p1ulv8861.1.2 kV=0.2080002494301389 Vminpu=0.8 Vmaxpu=1.2 model=1 kW=14.4801 kvar=2.940309711846446 Phases=2

New Load.load_p1ulv8862 conn=wye bus1=p1ulv8862.1.2 kV=0.2080002494301389 Vminpu=0.8 Vmaxpu=1.2 model=1 kW=3.49003 kvar=0.7105048699136965 Phases=2

New Load.load_p1ulv8863 conn=wye bus1=p1ulv8862.1.2 kV=0.2080002494301389 Vminpu=0.8 Vmaxpu=1.2 model=1 kW=3.7100400000000002 kvar=0.7494644148777485 Phases=2

New Load.load_p1ulv8864 conn=wye bus1=p1ulv8864.1.2.3 kV=0.48 Vminpu=0.8 Vmaxpu=1.2 model=1 kW=39.9104 kvar=8.104152369367366 Phases=3

New Load.load_p1ulv8865 conn=wye bus1=p1ulv8865.1.2 kV=0.2080002494301389 Vminpu=0.8 Vmaxpu=1.2 model=1 kW=3.0100300000000004 kvar=0.6096359018765115 Phases=2

New Load.load_p1ulv8866 conn=wye bus1=p1ulv8866.1.2.3 kV=0.48 Vminpu=0.8 Vmaxpu=1.2 model=1 kW=21.9502 kvar=7.206889737114982 Phases=3

New Load.load_p1ulv8867 conn=wye bus1=p1ulv8867.1.2 kV=0.2080002494301389 Vminpu=0.8 Vmaxpu=1.2 model=1 kW=18.2202 kvar=3.6997694084836845 Phases=2

New Load.load_p1ulv8868 conn=wye bus1=p1ulv8868.1.2 kV=0.2080002494301389 Vminpu=0.8 Vmaxpu=1.2 model=1 kW=6.58007 kvar=1.3395792527207553 Phases=2

New Load.load_p1ulv8869 conn=wye bus1=p1ulv8869.1.2 kV=0.2080002494301389 Vminpu=0.8 Vmaxpu=1.2 model=1 kW=4.14004 kvar=1.3592956687066866 Phases=2

New Load.load_p1ulv8870 conn=wye bus1=p1ulv8870.1.2 kV=0.2080002494301389 Vminpu=0.8 Vmaxpu=1.2 model=1 kW=3.15003 kvar=0.6396408727569326 Phases=2

New Load.load_p1ulv8871 conn=wye bus1=p1ulv8871.1.2 kV=0.2080002494301389 Vminpu=0.8 Vmaxpu=1.2 model=1 kW=2.41002 kvar=0.489375433301163 Phases=2

New Load.load_p1ulv8872 conn=wye bus1=p1ulv8872.1.2 kV=0.2080002494301389 Vminpu=0.8 Vmaxpu=1.2 model=1 kW=3.41003 kvar=0.6906498322195993 Phases=2

New Load.load_p1ulv8873 conn=wye bus1=p1ulv8873.1.2 kV=0.2080002494301389 Vminpu=0.8 Vmaxpu=1.2 model=1 kW=3.0300300000000004 kvar=0.6200140497357622 Phases=2

New Load.load_p1ulv8874 conn=wye bus1=p1ulv8874.1.2 kV=0.2080002494301389 Vminpu=0.8 Vmaxpu=1.2 model=1 kW=2.95003 kvar=0.6005709639720869 Phases=2

New Load.load_p1ulv8875 conn=wye bus1=p1ulv8875.1.2 kV=0.2080002494301389 Vminpu=0.8 Vmaxpu=1.2 model=1 kW=3.04003 kvar=0.6204785592224786 Phases=2

New Load.load_p1ulv8876 conn=wye bus1=p1ulv8876.1.2 kV=0.2080002494301389 Vminpu=0.8 Vmaxpu=1.2 model=1 kW=3.59004 kvar=0.7308650364566972 Phases=2

New Load.load_p1ulv8877 conn=wye bus1=p1ulv8877.1.2 kV=0.2080002494301389 Vminpu=0.8 Vmaxpu=1.2 model=1 kW=3.36003 kvar=0.6805230909267135 Phases=2

New Load.load_p1ulv8878 conn=wye bus1=p1ulv8878.1.2 kV=0.2080002494301389 Vminpu=0.8 Vmaxpu=1.2 model=1 kW=3.7100400000000002 kvar=0.7494644148777485 Phases=2

New Load.load_p1ulv8879 conn=wye bus1=p1ulv8879.1.2 kV=0.2080002494301389 Vminpu=0.8 Vmaxpu=1.2 model=1 kW=4.99005 kvar=1.0106589077713133 Phases=2

New Load.load_p1ulv8880 conn=wye bus1=p1ulv8880.1.2 kV=0.2080002494301389 Vminpu=0.8 Vmaxpu=1.2 model=1 kW=3.64004 kvar=0.739141647054201 Phases=2

New Load.load_p1ulv8881 conn=wye bus1=p1ulv8881.1.2 kV=0.2080002494301389 Vminpu=0.8 Vmaxpu=1.2 model=1 kW=3.44003 kvar=0.7003258045487328 Phases=2

New Load.load_p1ulv8882 conn=wye bus1=p1ulv8882.1.2 kV=0.2080002494301389 Vminpu=0.8 Vmaxpu=1.2 model=1 kW=3.99004 kvar=0.8102121782761024 Phases=2

New Load.load_p1ulv8883 conn=wye bus1=p1ulv8883.1.2 kV=0.2080002494301389 Vminpu=0.8 Vmaxpu=1.2 model=1 kW=2.8200300000000005 kvar=0.5696736784206362 Phases=2

New Load.load_p1ulv8884 conn=wye bus1=p1ulv8884.1.2 kV=0.2080002494301389 Vminpu=0.8 Vmaxpu=1.2 model=1 kW=3.13003 kvar=0.6404763570309296 Phases=2

New Load.load_p1ulv8885 conn=wye bus1=p1ulv8885.1.2 kV=0.2080002494301389 Vminpu=0.8 Vmaxpu=1.2 model=1 kW=3.06003 kvar=0.6197626431693976 Phases=2

New Load.load_p1ulv8886 conn=wye bus1=p1ulv8886.1.2 kV=0.2080002494301389 Vminpu=0.8 Vmaxpu=1.2 model=1 kW=3.38003 kvar=0.6898735027380501 Phases=2

New Load.load_p1ulv8887 conn=wye bus1=p1ulv8887.1.2 kV=0.2080002494301389 Vminpu=0.8 Vmaxpu=1.2 model=1 kW=3.85004 kvar=0.7797671809452545 Phases=2

New Load.load_p1ulv8888 conn=wye bus1=p1ulv8888.1.2 kV=0.2080002494301389 Vminpu=0.8 Vmaxpu=1.2 model=1 kW=4.80005 kvar=0.9696571100672596 Phases=2

New Load.load_p1ulv8889 conn=wye bus1=p1ulv8889.1.2 kV=0.2080002494301389 Vminpu=0.8 Vmaxpu=1.2 model=1 kW=3.19003 kvar=0.6494304777239135 Phases=2

New Load.load_p1ulv8890 conn=wye bus1=p1ulv8890.1.2 kV=0.2080002494301389 Vminpu=0.8 Vmaxpu=1.2 model=1 kW=4.2400400000000005 kvar=0.8609768434346036 Phases=2

New Load.load_p1ulv8891 conn=wye bus1=p1ulv8891.1.2 kV=0.2080002494301389 Vminpu=0.8 Vmaxpu=1.2 model=1 kW=3.0500300000000005 kvar=0.6193350066935321 Phases=2

New Load.load_p1ulv8892 conn=wye bus1=p1ulv8892.1.2 kV=0.2080002494301389 Vminpu=0.8 Vmaxpu=1.2 model=1 kW=3.64004 kvar=0.739141647054201 Phases=2

New Load.load_p1ulv8893 conn=wye bus1=p1ulv8893.1.2 kV=0.2080002494301389 Vminpu=0.8 Vmaxpu=1.2 model=1 kW=2.75003 kvar=0.5598547025122315 Phases=2

New Load.load_p1ulv8894 conn=wye bus1=p1ulv8894.1.2.3 kV=0.48 Vminpu=0.8 Vmaxpu=1.2 model=1 kW=26.990300000000005 kvar=5.480614168109967 Phases=3

New Load.load_p1ulv8896 conn=wye bus1=p1ulv8896.1.2 kV=0.2080002494301389 Vminpu=0.8 Vmaxpu=1.2 model=1 kW=2.90003 kvar=0.5903918986071232 Phases=2

New Load.load_p1ulv8897 conn=wye bus1=p1ulv8897.1.2 kV=0.2080002494301389 Vminpu=0.8 Vmaxpu=1.2 model=1 kW=3.93004 kvar=0.8000826809384517 Phases=2

New Load.load_p1ulv8898 conn=wye bus1=p1ulv8898.1.2 kV=0.2080002494301389 Vminpu=0.8 Vmaxpu=1.2 model=1 kW=3.88004 kvar=0.7899036155734878 Phases=2

New Load.load_p1ulv8900 conn=wye bus1=p1ulv8900.1.2 kV=0.2080002494301389 Vminpu=0.8 Vmaxpu=1.2 model=1 kW=2.66003 kvar=0.5401421290462703 Phases=2
