New Line.l(r:p1ulv207-udt167lv) Units=km Length=0.0332602 bus1=udt167lv.1.2 bus2=p1ulv207.1.2 switch=n enabled=y phases=2 Linecode=1P_OH_AL_4/0_Zuzara_0_416_0_2_2

New Line.l(r:p1ulv10893-udm611) Units=km Length=0.05856 bus1=udm611.1.2 bus2=p1ulv10893.1.2 switch=n enabled=y phases=2 Linecode=1P_OH_AL_4/0_Zuzara_0_416_0_2_2

New Line.l(r:udm611-udt167lv) Units=km Length=0.0353668 bus1=udt167lv.1.2 bus2=udm611.1.2 switch=n enabled=y phases=2 Linecode=1P_OH_AL_4/0_Zuzara_0_416_0_2_2

New Line.l(r:p1ulv48596-udm612) Units=km Length=0.0158696 bus1=udm612.1.2 bus2=p1ulv48596.1.2 switch=n enabled=y phases=2 Linecode=1P_OH_AL_2/0_Rucina_0_416_0_2_2

New Line.l(r:udm612-udt167lv) Units=km Length=0.0495765 bus1=udt167lv.1.2 bus2=udm612.1.2 switch=n enabled=y phases=2 Linecode=1P_OH_AL_4/0_Zuzara_0_416_0_2_2

New Line.l(r:p1ulv211-udt171lv) Units=km Length=0.0547721 bus1=udt171lv.1.2 bus2=p1ulv211.1.2 switch=n enabled=y phases=2 Linecode=1P_OH_AL_4/0_Zuzara_0_416_0_2_2

New Line.l(r:p1ulv51094-udm623) Units=km Length=0.0433154 bus1=udm623.1.2 bus2=p1ulv51094.1.2 switch=n enabled=y phases=2 Linecode=1P_OH_AL_4/0_Zuzara_0_416_0_2_2

New Line.l(r:udm623-udt171lv) Units=km Length=0.0182551 bus1=udt171lv.1.2 bus2=udm623.1.2 switch=n enabled=y phases=2 Linecode=1P_OH_AL_2/0_Rucina_0_416_0_2_2

New Line.l(r:p1ulv57909-udm625) Units=km Length=0.056164000000000006 bus1=udm625.1.2 bus2=p1ulv57909.1.2 switch=n enabled=y phases=2 Linecode=1P_OH_AL_4/0_Zuzara_0_416_0_2_2

New Line.l(r:p1ulv56587-udm624) Units=km Length=0.0211128 bus1=udm624.1.2 bus2=p1ulv56587.1.2 switch=n enabled=y phases=2 Linecode=1P_OH_AL_2/0_Rucina_0_416_0_2_2

New Line.l(r:udm624-udm625) Units=km Length=0.03567610000000001 bus1=udm625.1.2 bus2=udm624.1.2 switch=n enabled=y phases=2 Linecode=1P_OH_AL_4/0_Zuzara_0_416_0_2_2

New Line.l(r:udm625-udt171lv) Units=km Length=0.0182451 bus1=udt171lv.1.2 bus2=udm625.1.2 switch=n enabled=y phases=2 Linecode=1P_OH_AL_2/0_Rucina_0_416_0_2_2

New Line.l(r:p1ulv212-udt172lv) Units=km Length=0.0690685 bus1=udt172lv.1.2 bus2=p1ulv212.1.2 switch=n enabled=y phases=2 Linecode=1P_OH_AL_4/0_Zuzara_0_416_0_2_2

New Line.l(r:p1ulv48338-udt172lv) Units=km Length=0.0873684 bus1=udt172lv.1.2 bus2=p1ulv48338.1.2 switch=n enabled=y phases=2 Linecode=1P_OH_AL_4/0_Zuzara_0_416_0_2_2

New Line.l(r:p1ulv829-udm1596) Units=km Length=0.012320400000000002 bus1=udm1596.1.2 bus2=p1ulv829.1.2 switch=n enabled=y phases=2 Linecode=1P_UG_AL_1/0_Brenau_0_416_0_2_2

New Line.l(r:udm1596-udt407lv) Units=km Length=0.00949034 bus1=udt407lv.1.2 bus2=udm1596.1.2 switch=n enabled=y phases=2 Linecode=1P_UG_AL_1/0_Brenau_0_416_0_2_2

New Line.l(r:p1ulv45154-udm1597) Units=km Length=0.0342833 bus1=udm1597.1.2 bus2=p1ulv45154.1.2 switch=n enabled=y phases=2 Linecode=1P_OH_AL_4/0_Zuzara_0_416_0_2_2

New Line.l(r:udm1597-udt407lv) Units=km Length=0.0806628 bus1=udt407lv.1.2 bus2=udm1597.1.2 switch=n enabled=y phases=2 Linecode=1P_OH_AL_4/0_Zuzara_0_416_0_2_2

New Line.l(r:p1ulv830-udt408lv) Units=km Length=0.0537683 bus1=udt408lv.1.2 bus2=p1ulv830.1.2 switch=n enabled=y phases=2 Linecode=1P_UG_AL_1/0_Brenau_0_416_0_2_2

New Line.l(r:p1ulv43191-udt408lv) Units=km Length=0.0175428 bus1=udt408lv.1.2 bus2=p1ulv43191.1.2 switch=n enabled=y phases=2 Linecode=1P_UG_AL_1/0_Brenau_0_416_0_2_2

New Line.l(r:p1ulv831-udm1600) Units=km Length=0.0319071 bus1=udm1600.1.2 bus2=p1ulv831.1.2 switch=n enabled=y phases=2 Linecode=1P_OH_AL_4/0_Zuzara_0_416_0_2_2

New Line.l(r:p1ulv55566-udm1600) Units=km Length=0.0315349 bus1=udm1600.1.2 bus2=p1ulv55566.1.2 switch=n enabled=y phases=2 Linecode=1P_OH_AL_4/0_Zuzara_0_416_0_2_2

New Line.l(r:udm1600-udt409lv) Units=km Length=0.0193349 bus1=udt409lv.1.2 bus2=udm1600.1.2 switch=n enabled=y phases=2 Linecode=1P_OH_AL_2/0_Rucina_0_416_0_2_2

New Line.l(r:p1ulv46746-udm1601) Units=km Length=0.0313387 bus1=udm1601.1.2 bus2=p1ulv46746.1.2 switch=n enabled=y phases=2 Linecode=1P_OH_AL_4/0_Zuzara_0_416_0_2_2

New Line.l(r:p1ulv46868-udm1601) Units=km Length=0.030627100000000004 bus1=udm1601.1.2 bus2=p1ulv46868.1.2 switch=n enabled=y phases=2 Linecode=1P_OH_AL_4/0_Zuzara_0_416_0_2_2

New Line.l(r:p1ulv47983-udm1603) Units=km Length=0.0310536 bus1=udm1603.1.2 bus2=p1ulv47983.1.2 switch=n enabled=y phases=2 Linecode=1P_OH_AL_4/0_Zuzara_0_416_0_2_2

New Line.l(r:udm1601-udm1603) Units=km Length=0.011732700000000002 bus1=udm1601.1.2 bus2=udm1603.1.2 switch=n enabled=y phases=2 Linecode=1P_OH_AL_2/0_Rucina_0_416_0_2_2

New Line.l(r:udm1601-udt409lv) Units=km Length=0.0117297 bus1=udt409lv.1.2 bus2=udm1601.1.2 switch=n enabled=y phases=2 Linecode=1P_OH_AL_2/0_Rucina_0_416_0_2_0_2

New Line.l(r:p1ulv833-udt410lv) Units=km Length=0.0289794 bus1=udt410lv.1.2 bus2=p1ulv833.1.2 switch=n enabled=y phases=2 Linecode=1P_OH_AL_4/0_Zuzara_0_416_0_2_2

New Line.l(r:p1ulv832-udm1605) Units=km Length=0.0510668 bus1=udm1605.1.2 bus2=p1ulv832.1.2 switch=n enabled=y phases=2 Linecode=1P_OH_AL_4/0_Zuzara_0_416_0_2_2

New Line.l(r:p1ulv39921-udm1605) Units=km Length=0.0252693 bus1=udm1605.1.2 bus2=p1ulv39921.1.2 switch=n enabled=y phases=2 Linecode=1P_OH_AL_2/0_Rucina_0_416_0_2_2

New Line.l(r:udm1605-udt410lv) Units=km Length=0.018720900000000002 bus1=udt410lv.1.2 bus2=udm1605.1.2 switch=n enabled=y phases=2 Linecode=1P_OH_AL_2/0_Rucina_0_416_0_2_2

New Line.l(r:p1ulv834-udt411lv) Units=km Length=0.0167811 bus1=udt411lv.1.2 bus2=p1ulv834.1.2 switch=n enabled=y phases=2 Linecode=1P_UG_AL_1/0_Brenau_0_416_0_2_2

New Line.l(r:p1ulv41783-udm1609) Units=km Length=0.015430500000000002 bus1=udm1609.1.2 bus2=p1ulv41783.1.2 switch=n enabled=y phases=2 Linecode=1P_UG_AL_1/0_Brenau_0_416_0_2_2

New Line.l(r:p1ulv51291-udm1611) Units=km Length=0.0243922 bus1=udm1611.1.2 bus2=p1ulv51291.1.2 switch=n enabled=y phases=2 Linecode=1P_UG_AL_1/0_Brenau_0_416_0_2_2

New Line.l(r:udm1609-udm1611) Units=km Length=0.0150896 bus1=udm1609.1.2 bus2=udm1611.1.2 switch=n enabled=y phases=2 Linecode=1P_UG_AL_1/0_Brenau_0_416_0_2_2

New Line.l(r:udm1609-udt411lv) Units=km Length=0.0236393 bus1=udt411lv.1.2 bus2=udm1609.1.2 switch=n enabled=y phases=2 Linecode=1P_UG_AL_1/0_Brenau_0_416_0_2_2

New Line.l(r:p1ulv48622-udm1610) Units=km Length=0.0144413 bus1=udm1610.1.2 bus2=p1ulv48622.1.2 switch=n enabled=y phases=2 Linecode=1P_UG_AL_1/0_Brenau_0_416_0_2_2

New Line.l(r:p1ulv55505-udm1613) Units=km Length=0.0156544 bus1=udm1613.1.2 bus2=p1ulv55505.1.2 switch=n enabled=y phases=2 Linecode=1P_UG_AL_1/0_Brenau_0_416_0_2_2

New Line.l(r:p1ulv52058-udm1612) Units=km Length=0.0125754 bus1=udm1612.1.2 bus2=p1ulv52058.1.2 switch=n enabled=y phases=2 Linecode=1P_UG_AL_1/0_Brenau_0_416_0_2_2

New Line.l(r:udm1612-udm1613) Units=km Length=0.016005 bus1=udm1613.1.2 bus2=udm1612.1.2 switch=n enabled=y phases=2 Linecode=1P_UG_AL_1/0_Brenau_0_416_0_2_2

New Line.l(r:udm1610-udm1613) Units=km Length=0.008546580000000002 bus1=udm1610.1.2 bus2=udm1613.1.2 switch=n enabled=y phases=2 Linecode=1P_UG_AL_1/0_Brenau_0_416_0_2_2

New Line.l(r:udm1610-udt411lv) Units=km Length=0.0170959 bus1=udt411lv.1.2 bus2=udm1610.1.2 switch=n enabled=y phases=2 Linecode=1P_UG_AL_2/0_Converse_0_416_0_2_2

New Line.l(r:p1ulv58057-udt412lv) Units=km Length=0.0133148 bus1=udt412lv.1.2 bus2=p1ulv58057.1.2 switch=n enabled=y phases=2 Linecode=1P_OH_AL_2/0_Rucina_0_416_0_2_2

New Line.l(r:p1ulv61104-udt412lv) Units=km Length=0.01668 bus1=udt412lv.1.2 bus2=p1ulv61104.1.2 switch=n enabled=y phases=2 Linecode=1P_OH_AL_2/0_Rucina_0_416_0_2_2

New Line.l(r:p1ulv835-udm1614) Units=km Length=0.0182278 bus1=udm1614.1.2 bus2=p1ulv835.1.2 switch=n enabled=y phases=2 Linecode=1P_OH_AL_2/0_Rucina_0_416_0_2_2

New Line.l(r:udm1614-udt412lv) Units=km Length=0.0183096 bus1=udt412lv.1.2 bus2=udm1614.1.2 switch=n enabled=y phases=2 Linecode=1P_OH_AL_2/0_Rucina_0_416_0_2_2

New Line.l(r:p1ulv57760-udm1616) Units=km Length=0.0166618 bus1=udm1616.1.2 bus2=p1ulv57760.1.2 switch=n enabled=y phases=2 Linecode=1P_OH_AL_2/0_Rucina_0_416_0_2_2

New Line.l(r:p1ulv53195-udm1615) Units=km Length=0.0194607 bus1=udm1615.1.2 bus2=p1ulv53195.1.2 switch=n enabled=y phases=2 Linecode=1P_OH_AL_2/0_Rucina_0_416_0_2_2

New Line.l(r:udm1615-udm1616) Units=km Length=0.057969 bus1=udm1616.1.2 bus2=udm1615.1.2 switch=n enabled=y phases=2 Linecode=1P_OH_AL_4/0_Zuzara_0_416_0_2_2

New Line.l(r:udm1616-udt412lv) Units=km Length=0.0562705 bus1=udt412lv.1.2 bus2=udm1616.1.2 switch=n enabled=y phases=2 Linecode=1P_OH_AL_4/0_Zuzara_0_416_0_2_2

New Line.l(r:p1ulv60855-udt413lv) Units=km Length=0.0166431 bus1=udt413lv.1.2 bus2=p1ulv60855.1.2 switch=n enabled=y phases=2 Linecode=1P_OH_AL_2/0_Rucina_0_416_0_2_2

New Line.l(r:p1ulv51624-udm1620) Units=km Length=0.0126262 bus1=udm1620.1.2 bus2=p1ulv51624.1.2 switch=n enabled=y phases=2 Linecode=1P_OH_AL_2/0_Rucina_0_416_0_2_2

New Line.l(r:p1ulv836-udm1619) Units=km Length=0.0167028 bus1=udm1619.1.2 bus2=p1ulv836.1.2 switch=n enabled=y phases=2 Linecode=1P_OH_AL_2/0_Rucina_0_416_0_2_2

New Line.l(r:p1ulv52597-udm1622) Units=km Length=0.0173904 bus1=udm1622.1.2 bus2=p1ulv52597.1.2 switch=n enabled=y phases=2 Linecode=1P_OH_AL_2/0_Rucina_0_416_0_2_2

New Line.l(r:udm1619-udm1622) Units=km Length=0.0175125 bus1=udm1619.1.2 bus2=udm1622.1.2 switch=n enabled=y phases=2 Linecode=1P_OH_AL_2/0_Rucina_0_416_0_2_2

New Line.l(r:udm1619-udm1620) Units=km Length=0.0106042 bus1=udm1620.1.2 bus2=udm1619.1.2 switch=n enabled=y phases=2 Linecode=1P_OH_AL_2/0_Rucina_0_416_0_2_2

New Line.l(r:udm1620-udt413lv) Units=km Length=0.0106076 bus1=udt413lv.1.2 bus2=udm1620.1.2 switch=n enabled=y phases=2 Linecode=1P_OH_AL_2/0_Rucina_0_416_0_2_2

New Line.l(r:p1ulv51927-udm1621) Units=km Length=0.019415100000000005 bus1=udm1621.1.2 bus2=p1ulv51927.1.2 switch=n enabled=y phases=2 Linecode=1P_OH_AL_2/0_Rucina_0_416_0_2_2

New Line.l(r:p1ulv54013-udm1621) Units=km Length=0.0159819 bus1=udm1621.1.2 bus2=p1ulv54013.1.2 switch=n enabled=y phases=2 Linecode=1P_OH_AL_2/0_Rucina_0_416_0_2_2

New Line.l(r:udm1621-udt413lv) Units=km Length=0.0346164 bus1=udt413lv.1.2 bus2=udm1621.1.2 switch=n enabled=y phases=2 Linecode=1P_OH_AL_4/0_Zuzara_0_416_0_2_2

New Line.l(r:p1ulv58711-udt414lv) Units=km Length=0.0175118 bus1=udt414lv.1.2 bus2=p1ulv58711.1.2 switch=n enabled=y phases=2 Linecode=1P_UG_AL_1/0_Brenau_0_416_0_2_2

New Line.l(r:p1ulv837-udm1625) Units=km Length=0.0192841 bus1=udm1625.1.2 bus2=p1ulv837.1.2 switch=n enabled=y phases=2 Linecode=1P_UG_AL_1/0_Brenau_0_416_0_2_2

New Line.l(r:p1ulv52879-udm1625) Units=km Length=0.0196628 bus1=udm1625.1.2 bus2=p1ulv52879.1.2 switch=n enabled=y phases=2 Linecode=1P_UG_AL_1/0_Brenau_0_416_0_2_2

New Line.l(r:p1ulv40479-udm1626) Units=km Length=0.0191903 bus1=udm1626.1.2 bus2=p1ulv40479.1.2 switch=n enabled=y phases=2 Linecode=1P_UG_AL_1/0_Brenau_0_416_0_2_2

New Line.l(r:udm1625-udm1626) Units=km Length=0.0194734 bus1=udm1625.1.2 bus2=udm1626.1.2 switch=n enabled=y phases=2 Linecode=1P_UG_AL_1/0_Brenau_0_416_0_2_2

New Line.l(r:udm1625-udt414lv) Units=km Length=0.00974208 bus1=udt414lv.1.2 bus2=udm1625.1.2 switch=n enabled=y phases=2 Linecode=1P_UG_AL_2/0_Converse_0_416_0_2_2

New Line.l(r:p1ulv58828-udm1629) Units=km Length=0.0205112 bus1=udm1629.1.2 bus2=p1ulv58828.1.2 switch=n enabled=y phases=2 Linecode=1P_UG_AL_1/0_Brenau_0_416_0_2_2

New Line.l(r:p1ulv58984-udm1629) Units=km Length=0.0148311 bus1=udm1629.1.2 bus2=p1ulv58984.1.2 switch=n enabled=y phases=2 Linecode=1P_UG_AL_1/0_Brenau_0_416_0_2_2

New Line.l(r:udm1629-udt414lv) Units=km Length=0.0194734 bus1=udt414lv.1.2 bus2=udm1629.1.2 switch=n enabled=y phases=2 Linecode=1P_UG_AL_1/0_Brenau_0_416_0_2_2

New Line.l(r:p1ulv838-udt415lv) Units=km Length=0.0194794 bus1=udt415lv.1.2 bus2=p1ulv838.1.2 switch=n enabled=y phases=2 Linecode=1P_UG_AL_1/0_Brenau_0_416_0_2_2

New Line.l(r:p1ulv41715-udt415lv) Units=km Length=0.0181812 bus1=udt415lv.1.2 bus2=p1ulv41715.1.2 switch=n enabled=y phases=2 Linecode=1P_UG_AL_1/0_Brenau_0_416_0_2_2

New Line.l(r:p1ulv43008-udm1633) Units=km Length=0.0186608 bus1=udm1633.1.2 bus2=p1ulv43008.1.2 switch=n enabled=y phases=2 Linecode=1P_UG_AL_1/0_Brenau_0_416_0_2_2

New Line.l(r:p1ulv57118-udm1633) Units=km Length=0.020260100000000003 bus1=udm1633.1.2 bus2=p1ulv57118.1.2 switch=n enabled=y phases=2 Linecode=1P_UG_AL_1/0_Brenau_0_416_0_2_2

New Line.l(r:udm1633-udt415lv) Units=km Length=0.019824400000000002 bus1=udt415lv.1.2 bus2=udm1633.1.2 switch=n enabled=y phases=2 Linecode=1P_UG_AL_4/0_Sweetbriar_0_416_0_2_2

New Line.l(r:p1ulv48225-udm1634) Units=km Length=0.038022 bus1=udm1634.1.2 bus2=p1ulv48225.1.2 switch=n enabled=y phases=2 Linecode=1P_UG_AL_1/0_Brenau_0_416_0_2_2

New Line.l(r:p1ulv58400-udm1634) Units=km Length=0.0187866 bus1=udm1634.1.2 bus2=p1ulv58400.1.2 switch=n enabled=y phases=2 Linecode=1P_UG_AL_1/0_Brenau_0_416_0_2_2

New Line.l(r:udm1634-udt415lv) Units=km Length=0.0198147 bus1=udt415lv.1.2 bus2=udm1634.1.2 switch=n enabled=y phases=2 Linecode=1P_UG_AL_1/0_Brenau_0_416_0_2_2

New Line.l(r:p1ulv11081-udt416lv) Units=km Length=0.016719 bus1=udt416lv.1.2 bus2=p1ulv11081.1.2 switch=n enabled=y phases=2 Linecode=1P_UG_AL_1/0_Brenau_0_416_0_2_2

New Line.l(r:p1ulv839-udm1637) Units=km Length=0.019145200000000005 bus1=udm1637.1.2 bus2=p1ulv839.1.2 switch=n enabled=y phases=2 Linecode=1P_UG_AL_1/0_Brenau_0_416_0_2_2

New Line.l(r:udm1637-udt416lv) Units=km Length=0.0166021 bus1=udt416lv.1.2 bus2=udm1637.1.2 switch=n enabled=y phases=2 Linecode=1P_UG_AL_1/0_Brenau_0_416_0_2_2

New Line.l(r:p1ulv57670-udm1639) Units=km Length=0.0201091 bus1=udm1639.1.2 bus2=p1ulv57670.1.2 switch=n enabled=y phases=2 Linecode=1P_UG_AL_1/0_Brenau_0_416_0_2_2

New Line.l(r:udm1639-udt416lv) Units=km Length=0.0266874 bus1=udt416lv.1.2 bus2=udm1639.1.2 switch=n enabled=y phases=2 Linecode=1P_UG_AL_1/0_Brenau_0_416_0_2_2

New Line.l(r:p1ulv53498-udt417lv) Units=km Length=0.0213287 bus1=udt417lv.1.2 bus2=p1ulv53498.1.2 switch=n enabled=y phases=2 Linecode=1P_UG_AL_1/0_Brenau_0_416_0_2_2

New Line.l(r:p1ulv840-udm1640) Units=km Length=0.0167001 bus1=udm1640.1.2 bus2=p1ulv840.1.2 switch=n enabled=y phases=2 Linecode=1P_UG_AL_1/0_Brenau_0_416_0_2_2

New Line.l(r:p1ulv61049-udm1640) Units=km Length=0.021878 bus1=udm1640.1.2 bus2=p1ulv61049.1.2 switch=n enabled=y phases=2 Linecode=1P_UG_AL_1/0_Brenau_0_416_0_2_2

New Line.l(r:p1ulv60752-udm1646) Units=km Length=0.0205204 bus1=udm1646.1.2 bus2=p1ulv60752.1.2 switch=n enabled=y phases=2 Linecode=1P_OH_AL_2/0_Rucina_0_416_0_2_2

New Line.l(r:udm1640-udm1646) Units=km Length=0.0887591 bus1=udm1640.1.2 bus2=udm1646.1.2 switch=n enabled=y phases=2 Linecode=1P_OH_AL_4/0_Zuzara_0_416_0_2_2

New Line.l(r:udm1640-udt417lv) Units=km Length=0.00950008 bus1=udt417lv.1.2 bus2=udm1640.1.2 switch=n enabled=y phases=2 Linecode=1P_UG_AL_1/0_Brenau_0_416_0_2_2

New Line.l(r:p1ulv43068-udm1641) Units=km Length=0.022165 bus1=udm1641.1.2 bus2=p1ulv43068.1.2 switch=n enabled=y phases=2 Linecode=1P_UG_AL_1/0_Brenau_0_416_0_2_2

New Line.l(r:p1ulv46308-udm1641) Units=km Length=0.0188358 bus1=udm1641.1.2 bus2=p1ulv46308.1.2 switch=n enabled=y phases=2 Linecode=1P_UG_AL_1/0_Brenau_0_416_0_2_2

New Line.l(r:p1ulv54918-udm1644) Units=km Length=0.050236 bus1=udm1644.1.2 bus2=p1ulv54918.1.2 switch=n enabled=y phases=2 Linecode=1P_UG_AL_1/0_Brenau_0_416_0_2_2

New Line.l(r:p1ulv60337-udm1644) Units=km Length=0.0170489 bus1=udm1644.1.2 bus2=p1ulv60337.1.2 switch=n enabled=y phases=2 Linecode=1P_UG_AL_1/0_Brenau_0_416_0_2_2

New Line.l(r:udm1641-udm1644) Units=km Length=0.00950008 bus1=udm1641.1.2 bus2=udm1644.1.2 switch=n enabled=y phases=2 Linecode=1P_UG_AL_1/0_Brenau_0_416_0_2_2

New Line.l(r:udm1641-udt417lv) Units=km Length=0.0190002 bus1=udt417lv.1.2 bus2=udm1641.1.2 switch=n enabled=y phases=2 Linecode=1P_UG_AL_4/0_Sweetbriar_0_416_0_2_2

New Line.l(r:p1ulv846-udt422lv) Units=km Length=0.0188006 bus1=udt422lv.1.2 bus2=p1ulv846.1.2 switch=n enabled=y phases=2 Linecode=1P_OH_AL_2/0_Rucina_0_416_0_2_2

New Line.l(r:p1ulv39866-udt422lv) Units=km Length=0.021060400000000003 bus1=udt422lv.1.2 bus2=p1ulv39866.1.2 switch=n enabled=y phases=2 Linecode=1P_OH_AL_2/0_Rucina_0_416_0_2_2

New Line.l(r:p1ulv845-udm1668) Units=km Length=0.013380300000000001 bus1=udm1668.1.2 bus2=p1ulv845.1.2 switch=n enabled=y phases=2 Linecode=1P_OH_AL_2/0_Rucina_0_416_0_2_2

New Line.l(r:udm1668-udt422lv) Units=km Length=0.0161351 bus1=udt422lv.1.2 bus2=udm1668.1.2 switch=n enabled=y phases=2 Linecode=1P_OH_AL_2/0_Rucina_0_416_0_2_2

New Line.l(r:p1ulv848-udt424lv) Units=km Length=0.0209882 bus1=udt424lv.1.2 bus2=p1ulv848.1.2 switch=n enabled=y phases=2 Linecode=1P_OH_AL_2/0_Rucina_0_416_0_2_2

New Line.l(r:p1ulv51484-udt424lv) Units=km Length=0.0235624 bus1=udt424lv.1.2 bus2=p1ulv51484.1.2 switch=n enabled=y phases=2 Linecode=1P_OH_AL_2/0_Rucina_0_416_0_2_2

New Line.l(r:p1ulv56843-udt424lv) Units=km Length=0.0165749 bus1=udt424lv.1.2 bus2=p1ulv56843.1.2 switch=n enabled=y phases=2 Linecode=1P_OH_AL_2/0_Rucina_0_416_0_2_2

New Line.l(r:p1ulv57298-udt428lv) Units=km Length=0.0210348 bus1=udt428lv.1.2 bus2=p1ulv57298.1.2 switch=n enabled=y phases=2 Linecode=1P_UG_AL_1/0_Brenau_0_416_0_2_2

New Line.l(r:p1ulv852-udm1699) Units=km Length=0.0154659 bus1=udm1699.1.2 bus2=p1ulv852.1.2 switch=n enabled=y phases=2 Linecode=1P_UG_AL_1/0_Brenau_0_416_0_2_2

New Line.l(r:udm1699-udt428lv) Units=km Length=0.00775023 bus1=udt428lv.1.2 bus2=udm1699.1.2 switch=n enabled=y phases=2 Linecode=1P_UG_AL_1/0_Brenau_0_416_0_2_2

New Line.l(r:p1ulv47058-udm1700) Units=km Length=0.0177739 bus1=udm1700.1.2 bus2=p1ulv47058.1.2 switch=n enabled=y phases=2 Linecode=1P_UG_AL_1/0_Brenau_0_416_0_2_2

New Line.l(r:udm1700-udt428lv) Units=km Length=0.00774623 bus1=udt428lv.1.2 bus2=udm1700.1.2 switch=n enabled=y phases=2 Linecode=1P_UG_AL_1/0_Brenau_0_416_0_2_2

New Line.l(r:p1ulv853-udt429lv) Units=km Length=0.0187099 bus1=udt429lv.1.2 bus2=p1ulv853.1.2 switch=n enabled=y phases=2 Linecode=1P_OH_AL_2/0_Rucina_0_416_0_2_2

New Line.l(r:p1ulv52188-udm1703) Units=km Length=0.0223016 bus1=udm1703.1.2 bus2=p1ulv52188.1.2 switch=n enabled=y phases=2 Linecode=1P_OH_AL_2/0_Rucina_0_416_0_2_2

New Line.l(r:p1ulv58464-udm1703) Units=km Length=0.01968 bus1=udm1703.1.2 bus2=p1ulv58464.1.2 switch=n enabled=y phases=2 Linecode=1P_OH_AL_2/0_Rucina_0_416_0_2_2

New Line.l(r:p1ulv59790-udm1707) Units=km Length=0.0176094 bus1=udm1707.1.2 bus2=p1ulv59790.1.2 switch=n enabled=y phases=2 Linecode=1P_OH_AL_2/0_Rucina_0_416_0_2_2

New Line.l(r:udm1703-udm1707) Units=km Length=0.018346700000000004 bus1=udm1703.1.2 bus2=udm1707.1.2 switch=n enabled=y phases=2 Linecode=1P_OH_AL_2/0_Rucina_0_416_0_2_2

New Line.l(r:udm1703-udt429lv) Units=km Length=0.01835 bus1=udt429lv.1.2 bus2=udm1703.1.2 switch=n enabled=y phases=2 Linecode=1P_OH_AL_2/0_Rucina_0_416_0_2_2

New Line.l(r:p1ulv55680-udm1704) Units=km Length=0.0178545 bus1=udm1704.1.2 bus2=p1ulv55680.1.2 switch=n enabled=y phases=2 Linecode=1P_OH_AL_2/0_Rucina_0_416_0_2_2

New Line.l(r:p1ulv59054-udm1706) Units=km Length=0.0177553 bus1=udm1706.1.2 bus2=p1ulv59054.1.2 switch=n enabled=y phases=2 Linecode=1P_OH_AL_2/0_Rucina_0_416_0_2_2

New Line.l(r:udm1704-udm1706) Units=km Length=0.0261315 bus1=udm1704.1.2 bus2=udm1706.1.2 switch=n enabled=y phases=2 Linecode=1P_OH_AL_2/0_Rucina_0_416_0_2_2

New Line.l(r:udm1704-udt429lv) Units=km Length=0.01835 bus1=udt429lv.1.2 bus2=udm1704.1.2 switch=n enabled=y phases=2 Linecode=1P_OH_AL_2/0_Rucina_0_416_0_2_2

New Line.l(r:p1ulv855-udt431lv) Units=km Length=0.020689100000000002 bus1=udt431lv.1.2 bus2=p1ulv855.1.2 switch=n enabled=y phases=2 Linecode=1P_UG_AL_1/0_Brenau_0_416_0_2_2

New Line.l(r:p1ulv57606-udm1715) Units=km Length=0.0178614 bus1=udm1715.1.2 bus2=p1ulv57606.1.2 switch=n enabled=y phases=2 Linecode=1P_UG_AL_1/0_Brenau_0_416_0_2_2

New Line.l(r:udm1715-udt431lv) Units=km Length=0.00918356 bus1=udt431lv.1.2 bus2=udm1715.1.2 switch=n enabled=y phases=2 Linecode=1P_UG_AL_1/0_Brenau_0_416_0_2_2

New Line.l(r:p1ulv60465-udm1716) Units=km Length=0.0197251 bus1=udm1716.1.2 bus2=p1ulv60465.1.2 switch=n enabled=y phases=2 Linecode=1P_UG_AL_1/0_Brenau_0_416_0_2_2

New Line.l(r:udm1716-udt431lv) Units=km Length=0.0184655 bus1=udt431lv.1.2 bus2=udm1716.1.2 switch=n enabled=y phases=2 Linecode=1P_UG_AL_1/0_Brenau_0_416_0_2_2

New Line.l(r:p1ulv47986-udm1724) Units=km Length=0.0222677 bus1=udm1724.1.2 bus2=p1ulv47986.1.2 switch=n enabled=y phases=2 Linecode=1P_UG_AL_1/0_Brenau_0_416_0_2_2

New Line.l(r:p1ulv857-udm1723) Units=km Length=0.0216419 bus1=udm1723.1.2 bus2=p1ulv857.1.2 switch=n enabled=y phases=2 Linecode=1P_UG_AL_1/0_Brenau_0_416_0_2_2

New Line.l(r:udm1723-udm1724) Units=km Length=0.00927076 bus1=udm1724.1.2 bus2=udm1723.1.2 switch=n enabled=y phases=2 Linecode=1P_UG_AL_1/0_Brenau_0_416_0_2_2

New Line.l(r:udm1724-udt433lv) Units=km Length=0.018552200000000005 bus1=udt433lv.1.2 bus2=udm1724.1.2 switch=n enabled=y phases=2 Linecode=1P_OH_AL_2/0_Rucina_0_416_0_2_2

New Line.l(r:p1ulv52945-udm1725) Units=km Length=0.0231933 bus1=udm1725.1.2 bus2=p1ulv52945.1.2 switch=n enabled=y phases=2 Linecode=1P_UG_AL_1/0_Brenau_0_416_0_2_2

New Line.l(r:udm1725-udt433lv) Units=km Length=0.05201340000000001 bus1=udt433lv.1.2 bus2=udm1725.1.2 switch=n enabled=y phases=2 Linecode=1P_OH_AL_4/0_Zuzara_0_416_0_2_2

New Line.l(r:p1ulv858-udm1726) Units=km Length=0.0569478 bus1=udm1726.1.2 bus2=p1ulv858.1.2 switch=n enabled=y phases=2 Linecode=1P_OH_AL_4/0_Zuzara_0_416_0_2_2

New Line.l(r:p1ulv53158-udm1726) Units=km Length=0.0155959 bus1=udm1726.1.2 bus2=p1ulv53158.1.2 switch=n enabled=y phases=2 Linecode=1P_OH_AL_2/0_Rucina_0_416_0_2_2

New Line.l(r:p1ulv56048-udm1726) Units=km Length=0.0151519 bus1=udm1726.1.2 bus2=p1ulv56048.1.2 switch=n enabled=y phases=2 Linecode=1P_OH_AL_2/0_Rucina_0_416_0_2_2

New Line.l(r:udm1726-udt434lv) Units=km Length=0.0171401 bus1=udt434lv.1.2 bus2=udm1726.1.2 switch=n enabled=y phases=2 Linecode=1P_OH_AL_2/0_Rucina_0_416_0_2_2

New Line.l(r:p1ulv49622-udm1728) Units=km Length=0.015398800000000002 bus1=udm1728.1.2 bus2=p1ulv49622.1.2 switch=n enabled=y phases=2 Linecode=1P_OH_AL_2/0_Rucina_0_416_0_2_2

New Line.l(r:p1ulv60298-udm1728) Units=km Length=0.012984900000000002 bus1=udm1728.1.2 bus2=p1ulv60298.1.2 switch=n enabled=y phases=2 Linecode=1P_OH_AL_2/0_Rucina_0_416_0_2_2

New Line.l(r:p1ulv61132-udm1732) Units=km Length=0.0389709 bus1=udm1732.1.2 bus2=p1ulv61132.1.2 switch=n enabled=y phases=2 Linecode=1P_OH_AL_4/0_Zuzara_0_416_0_2_2

New Line.l(r:p1ulv41544-udm1727) Units=km Length=0.0112057 bus1=udm1727.1.2 bus2=p1ulv41544.1.2 switch=n enabled=y phases=2 Linecode=1P_OH_AL_2/0_Rucina_0_416_0_2_2

New Line.l(r:udm1727-udm1732) Units=km Length=0.0173041 bus1=udm1732.1.2 bus2=udm1727.1.2 switch=n enabled=y phases=2 Linecode=1P_OH_AL_2/0_Rucina_0_416_0_2_2

New Line.l(r:udm1728-udm1732) Units=km Length=0.0108503 bus1=udm1728.1.2 bus2=udm1732.1.2 switch=n enabled=y phases=2 Linecode=1P_OH_AL_2/0_Rucina_0_416_0_2_2

New Line.l(r:udm1728-udt434lv) Units=km Length=0.0108503 bus1=udt434lv.1.2 bus2=udm1728.1.2 switch=n enabled=y phases=2 Linecode=1P_OH_AL_2/0_Rucina_0_416_0_2_2

New Line.l(r:p1ulv41976-udt523lv) Units=km Length=0.0186121 bus1=udt523lv.1.2 bus2=p1ulv41976.1.2 switch=n enabled=y phases=2 Linecode=1P_UG_AL_1/0_Brenau_0_416_0_2_2

New Line.l(r:p1ulv968-udm2097) Units=km Length=0.00431741 bus1=udm2097.1.2 bus2=p1ulv968.1.2 switch=n enabled=y phases=2 Linecode=1P_UG_AL_1/0_Brenau_0_416_0_2_2

New Line.l(r:p1ulv52828-udm2100) Units=km Length=0.0097894 bus1=udm2100.1.2 bus2=p1ulv52828.1.2 switch=n enabled=y phases=2 Linecode=1P_UG_AL_1/0_Brenau_0_416_0_2_2

New Line.l(r:p1ulv60347-udm2103) Units=km Length=0.00568352 bus1=udm2103.1.2 bus2=p1ulv60347.1.2 switch=n enabled=y phases=2 Linecode=1P_UG_AL_1/0_Brenau_0_416_0_2_2

New Line.l(r:udm2100-udm2103) Units=km Length=0.0195475 bus1=udm2100.1.2 bus2=udm2103.1.2 switch=n enabled=y phases=2 Linecode=1P_UG_AL_1/0_Brenau_0_416_0_2_2

New Line.l(r:udm2097-udm2100) Units=km Length=0.00977717 bus1=udm2097.1.2 bus2=udm2100.1.2 switch=n enabled=y phases=2 Linecode=1P_UG_AL_4/0_Sweetbriar_0_416_0_2_2

New Line.l(r:udm2097-udt523lv) Units=km Length=0.00976303 bus1=udt523lv.1.2 bus2=udm2097.1.2 switch=n enabled=y phases=2 Linecode=1P_UG_AL_4/0_Sweetbriar_0_416_0_2_2

New Line.l(r:p1ulv57190-udm2102) Units=km Length=0.00739035 bus1=udm2102.1.2 bus2=p1ulv57190.1.2 switch=n enabled=y phases=2 Linecode=1P_UG_AL_1/0_Brenau_0_416_0_2_2

New Line.l(r:p1ulv958-udm2096) Units=km Length=0.0110679 bus1=udm2096.1.2 bus2=p1ulv958.1.2 switch=n enabled=y phases=2 Linecode=1P_UG_AL_1/0_Brenau_0_416_0_2_2

New Line.l(r:p1ulv51425-udm2096) Units=km Length=0.012729600000000002 bus1=udm2096.1.2 bus2=p1ulv51425.1.2 switch=n enabled=y phases=2 Linecode=1P_UG_AL_1/0_Brenau_0_416_0_2_2

New Line.l(r:udm2096-udm2102) Units=km Length=0.0374279 bus1=udm2102.1.2 bus2=udm2096.1.2 switch=n enabled=y phases=2 Linecode=1P_UG_AL_1/0_Brenau_0_416_0_2_2

New Line.l(r:p1ulv61114-udm2104) Units=km Length=0.00822263 bus1=udm2104.1.2 bus2=p1ulv61114.1.2 switch=n enabled=y phases=2 Linecode=1P_UG_AL_1/0_Brenau_0_416_0_2_2

New Line.l(r:p1ulv56335-udm2101) Units=km Length=0.00831279 bus1=udm2101.1.2 bus2=p1ulv56335.1.2 switch=n enabled=y phases=2 Linecode=1P_UG_AL_1/0_Brenau_0_416_0_2_2

New Line.l(r:udm2101-udm2104) Units=km Length=0.00881618 bus1=udm2104.1.2 bus2=udm2101.1.2 switch=n enabled=y phases=2 Linecode=1P_UG_AL_1/0_Brenau_0_416_0_2_2

New Line.l(r:udm2102-udm2104) Units=km Length=0.0176387 bus1=udm2102.1.2 bus2=udm2104.1.2 switch=n enabled=y phases=2 Linecode=1P_UG_AL_1/0_Brenau_0_416_0_2_2

New Line.l(r:udm2102-udt523lv) Units=km Length=0.0185933 bus1=udt523lv.1.2 bus2=udm2102.1.2 switch=n enabled=y phases=2 Linecode=1P_UG_AL_4/0_Sweetbriar_0_416_0_2_2

New Line.l(r:p1ulv50243-udt524lv) Units=km Length=0.0194601 bus1=udt524lv.1.2 bus2=p1ulv50243.1.2 switch=n enabled=y phases=2 Linecode=1P_OH_AL_2/0_Rucina_0_416_0_2_2

New Line.l(r:p1ulv53020-udt524lv) Units=km Length=0.0325723 bus1=udt524lv.1.2 bus2=p1ulv53020.1.2 switch=n enabled=y phases=2 Linecode=1P_OH_AL_4/0_Zuzara_0_416_0_2_2

New Line.l(r:p1ulv60540-udt524lv) Units=km Length=0.0174068 bus1=udt524lv.1.2 bus2=p1ulv60540.1.2 switch=n enabled=y phases=2 Linecode=1P_OH_AL_2/0_Rucina_0_416_0_2_2

New Line.l(r:p1ulv960-udm2105) Units=km Length=0.0188435 bus1=udm2105.1.2 bus2=p1ulv960.1.2 switch=n enabled=y phases=2 Linecode=1P_OH_AL_2/0_Rucina_0_416_0_2_2

New Line.l(r:udm2105-udt524lv) Units=km Length=0.0180024 bus1=udt524lv.1.2 bus2=udm2105.1.2 switch=n enabled=y phases=2 Linecode=1P_OH_AL_2/0_Rucina_0_416_0_2_2

New Line.l(r:p1ulv977-udm2165) Units=km Length=0.00689719 bus1=udm2165.1.2 bus2=p1ulv977.1.2 switch=n enabled=y phases=2 Linecode=1P_UG_AL_1/0_Brenau_0_416_0_2_2

New Line.l(r:p1ulv54278-udm2165) Units=km Length=0.00724983 bus1=udm2165.1.2 bus2=p1ulv54278.1.2 switch=n enabled=y phases=2 Linecode=1P_UG_AL_1/0_Brenau_0_416_0_2_2

New Line.l(r:p1ulv46877-udm2166) Units=km Length=0.007076 bus1=udm2166.1.2 bus2=p1ulv46877.1.2 switch=n enabled=y phases=2 Linecode=1P_UG_AL_1/0_Brenau_0_416_0_2_2

New Line.l(r:udm2165-udm2166) Units=km Length=0.0194646 bus1=udm2165.1.2 bus2=udm2166.1.2 switch=n enabled=y phases=2 Linecode=1P_UG_AL_1/0_Brenau_0_416_0_2_2

New Line.l(r:udm2165-udt535lv) Units=km Length=0.00719124 bus1=udt535lv.1.2 bus2=udm2165.1.2 switch=n enabled=y phases=2 Linecode=1P_UG_AL_1/0_Brenau_0_416_0_2_2

New Line.l(r:p1ulv51492-udm2168) Units=km Length=0.00575243 bus1=udm2168.1.2 bus2=p1ulv51492.1.2 switch=n enabled=y phases=2 Linecode=1P_UG_AL_1/0_Brenau_0_416_0_2_2

New Line.l(r:p1ulv50174-udm2167) Units=km Length=0.00507666 bus1=udm2167.1.2 bus2=p1ulv50174.1.2 switch=n enabled=y phases=2 Linecode=1P_UG_AL_1/0_Brenau_0_416_0_2_2

New Line.l(r:udm2167-udm2168) Units=km Length=0.00814384 bus1=udm2168.1.2 bus2=udm2167.1.2 switch=n enabled=y phases=2 Linecode=1P_UG_AL_1/0_Brenau_0_416_0_2_2

New Line.l(r:udm2168-udt535lv) Units=km Length=0.00719124 bus1=udt535lv.1.2 bus2=udm2168.1.2 switch=n enabled=y phases=2 Linecode=1P_UG_AL_1/0_Brenau_0_416_0_2_2

New Line.l(r:p1ulv984-udt539lv) Units=km Length=0.0214121 bus1=udt539lv.1.2 bus2=p1ulv984.1.2 switch=n enabled=y phases=2 Linecode=1P_UG_AL_1/0_Brenau_0_416_0_2_2

New Line.l(r:p1ulv40162-udm2195) Units=km Length=0.0150345 bus1=udm2195.1.2 bus2=p1ulv40162.1.2 switch=n enabled=y phases=2 Linecode=1P_UG_AL_1/0_Brenau_0_416_0_2_2

New Line.l(r:udm2195-udt539lv) Units=km Length=0.00980115 bus1=udt539lv.1.2 bus2=udm2195.1.2 switch=n enabled=y phases=2 Linecode=1P_UG_AL_1/0_Brenau_0_416_0_2_2

New Line.l(r:p1ulv50278-udm2196) Units=km Length=0.0157086 bus1=udm2196.1.2 bus2=p1ulv50278.1.2 switch=n enabled=y phases=2 Linecode=1P_UG_AL_1/0_Brenau_0_416_0_2_2

New Line.l(r:udm2196-udt539lv) Units=km Length=0.009811 bus1=udt539lv.1.2 bus2=udm2196.1.2 switch=n enabled=y phases=2 Linecode=1P_UG_AL_1/0_Brenau_0_416_0_2_2

New Line.l(r:p1ulv985-udt540lv) Units=km Length=0.017152300000000002 bus1=udt540lv.1.2 bus2=p1ulv985.1.2 switch=n enabled=y phases=2 Linecode=1P_UG_AL_1/0_Brenau_0_416_0_2_2

New Line.l(r:p1ulv986-udt540lv) Units=km Length=0.00588215 bus1=udt540lv.1.2 bus2=p1ulv986.1.2 switch=n enabled=y phases=2 Linecode=1P_UG_AL_1/0_Brenau_0_416_0_2_2

New Line.l(r:p1ulv59262-udm2199) Units=km Length=0.026260600000000002 bus1=udm2199.1.2 bus2=p1ulv59262.1.2 switch=n enabled=y phases=2 Linecode=1P_UG_AL_1/0_Brenau_0_416_0_2_2

New Line.l(r:udm2199-udt540lv) Units=km Length=0.009801 bus1=udt540lv.1.2 bus2=udm2199.1.2 switch=n enabled=y phases=2 Linecode=1P_UG_AL_1/0_Brenau_0_416_0_2_2

New Line.l(r:p1ulv41572-udt541lv) Units=km Length=0.0170937 bus1=udt541lv.1.2 bus2=p1ulv41572.1.2 switch=n enabled=y phases=2 Linecode=1P_UG_AL_4/0_Sweetbriar_0_416_0_2_2

New Line.l(r:p1ulv987-udm2200) Units=km Length=0.0473773 bus1=udm2200.1.2 bus2=p1ulv987.1.2 switch=n enabled=y phases=2 Linecode=1P_UG_AL_4/0_Sweetbriar_0_416_0_2_2

New Line.l(r:udm2200-udt541lv) Units=km Length=0.00950002 bus1=udt541lv.1.2 bus2=udm2200.1.2 switch=n enabled=y phases=2 Linecode=1P_UG_AL_4/0_Sweetbriar_0_416_0_2_2
