New Line.l(r:p1ulv4924-udm9024) Units=km Length=0.0324361 bus1=udm9024.1.2 bus2=p1ulv4924.1.2 switch=n enabled=y phases=2 Linecode=1P_OH_AL_4/0_Zuzara_0_416_0_2_2

New Line.l(r:udm9024-udt2259lv) Units=km Length=0.0195382 bus1=udt2259lv.1.2 bus2=udm9024.1.2 switch=n enabled=y phases=2 Linecode=1P_OH_AL_2/0_Rucina_0_416_0_2_2

New Line.l(r:p1ulv43749-udm9025) Units=km Length=0.025330400000000003 bus1=udm9025.1.2 bus2=p1ulv43749.1.2 switch=n enabled=y phases=2 Linecode=1P_OH_AL_2/0_Rucina_0_416_0_2_2

New Line.l(r:udm9025-udt2259lv) Units=km Length=0.0195359 bus1=udt2259lv.1.2 bus2=udm9025.1.2 switch=n enabled=y phases=2 Linecode=1P_OH_AL_2/0_Rucina_0_416_0_2_2

New Line.l(r:p1ulv5003-udt2301lv) Units=km Length=0.00969977 bus1=udt2301lv.1.2 bus2=p1ulv5003.1.2 switch=n enabled=y phases=2 Linecode=1P_OH_AL_2/0_Rucina_0_416_0_2_2

New Line.l(r:p1ulv44033-udt2301lv) Units=km Length=0.00969977 bus1=udt2301lv.1.2 bus2=p1ulv44033.1.2 switch=n enabled=y phases=2 Linecode=1P_OH_AL_2/0_Rucina_0_416_0_2_2

New Line.l(r:p1ulv14549-udm25393) Units=km Length=0.0159792 bus1=udm25393.1.2 bus2=p1ulv14549.1.2 switch=n enabled=y phases=2 Linecode=1P_UG_AL_1/0_Brenau_0_416_0_2_2

New Line.l(r:p1ulv31612-udm25393) Units=km Length=0.0136523 bus1=udm25393.1.2 bus2=p1ulv31612.1.2 switch=n enabled=y phases=2 Linecode=1P_UG_AL_1/0_Brenau_0_416_0_2_2

New Line.l(r:p1ulv34810-udm25393) Units=km Length=0.0347283 bus1=udm25393.1.2 bus2=p1ulv34810.1.2 switch=n enabled=y phases=2 Linecode=1P_UG_AL_1/0_Brenau_0_416_0_2_2

New Line.l(r:p1ulv14570-udm25394) Units=km Length=0.0117775 bus1=udm25394.1.2 bus2=p1ulv14570.1.2 switch=n enabled=y phases=2 Linecode=1P_UG_AL_1/0_Brenau_0_416_0_2_2

New Line.l(r:udm25393-udm25394) Units=km Length=0.029852 bus1=udm25393.1.2 bus2=udm25394.1.2 switch=n enabled=y phases=2 Linecode=1P_UG_AL_1/0_Brenau_0_416_0_2_2

New Line.l(r:udm25393-udt6810lv) Units=km Length=0.00995322 bus1=udt6810lv.1.2 bus2=udm25393.1.2 switch=n enabled=y phases=2 Linecode=1P_UG_AL_4/0_Sweetbriar_0_416_0_2_2

New Line.l(r:p1ulv49467-udm25398) Units=km Length=0.0119204 bus1=udm25398.1.2 bus2=p1ulv49467.1.2 switch=n enabled=y phases=2 Linecode=1P_UG_AL_1/0_Brenau_0_416_0_2_2

New Line.l(r:p1ulv14401-udm25392) Units=km Length=0.0118428 bus1=udm25392.1.2 bus2=p1ulv14401.1.2 switch=n enabled=y phases=2 Linecode=1P_UG_AL_1/0_Brenau_0_416_0_2_2

New Line.l(r:udm25392-udm25398) Units=km Length=0.05572450000000001 bus1=udm25398.1.2 bus2=udm25392.1.2 switch=n enabled=y phases=2 Linecode=1P_UG_AL_1/0_Brenau_0_416_0_2_2

New Line.l(r:p1ulv35019-udm25397) Units=km Length=0.013832600000000002 bus1=udm25397.1.2 bus2=p1ulv35019.1.2 switch=n enabled=y phases=2 Linecode=1P_UG_AL_1/0_Brenau_0_416_0_2_2

New Line.l(r:udm25397-udm25398) Units=km Length=0.038383200000000006 bus1=udm25398.1.2 bus2=udm25397.1.2 switch=n enabled=y phases=2 Linecode=1P_UG_AL_1/0_Brenau_0_416_0_2_2

New Line.l(r:udm25398-udt6810lv) Units=km Length=0.0198976 bus1=udt6810lv.1.2 bus2=udm25398.1.2 switch=n enabled=y phases=2 Linecode=1P_UG_AL_4/0_Sweetbriar_0_416_0_2_2

New Line.l(r:p1ulv14402-udm25399) Units=km Length=0.00740003 bus1=udm25399.1.2 bus2=p1ulv14402.1.2 switch=n enabled=y phases=2 Linecode=1P_UG_AL_1/0_Brenau_0_416_0_2_2

New Line.l(r:p1ulv43916-udm25406) Units=km Length=0.0103975 bus1=udm25406.1.2 bus2=p1ulv43916.1.2 switch=n enabled=y phases=2 Linecode=1P_UG_AL_1/0_Brenau_0_416_0_2_2

New Line.l(r:p1ulv14404-udm25400) Units=km Length=0.0204615 bus1=udm25400.1.2 bus2=p1ulv14404.1.2 switch=n enabled=y phases=2 Linecode=1P_UG_AL_1/0_Brenau_0_416_0_2_2

New Line.l(r:udm25400-udm25406) Units=km Length=0.04893310000000001 bus1=udm25406.1.2 bus2=udm25400.1.2 switch=n enabled=y phases=2 Linecode=1P_UG_AL_1/0_Brenau_0_416_0_2_2

New Line.l(r:udm25399-udm25406) Units=km Length=0.027809200000000003 bus1=udm25399.1.2 bus2=udm25406.1.2 switch=n enabled=y phases=2 Linecode=1P_UG_AL_1/0_Brenau_0_416_0_2_2

New Line.l(r:udm25399-udt6811lv) Units=km Length=0.00926595 bus1=udt6811lv.1.2 bus2=udm25399.1.2 switch=n enabled=y phases=2 Linecode=1P_UG_AL_2/0_Converse_0_416_0_2_2

New Line.l(r:p1ulv14419-udm25401) Units=km Length=0.0078301 bus1=udm25401.1.2 bus2=p1ulv14419.1.2 switch=n enabled=y phases=2 Linecode=1P_UG_AL_1/0_Brenau_0_416_0_2_2

New Line.l(r:p1ulv30307-udm25401) Units=km Length=0.00803538 bus1=udm25401.1.2 bus2=p1ulv30307.1.2 switch=n enabled=y phases=2 Linecode=1P_UG_AL_1/0_Brenau_0_416_0_2_2

New Line.l(r:p1ulv14421-udm25402) Units=km Length=0.0298753 bus1=udm25402.1.2 bus2=p1ulv14421.1.2 switch=n enabled=y phases=2 Linecode=1P_UG_AL_1/0_Brenau_0_416_0_2_2

New Line.l(r:p1ulv28079-udm25403) Units=km Length=0.00818244 bus1=udm25403.1.2 bus2=p1ulv28079.1.2 switch=n enabled=y phases=2 Linecode=1P_UG_AL_1/0_Brenau_0_416_0_2_2

New Line.l(r:p1ulv37917-udm25403) Units=km Length=0.00638847 bus1=udm25403.1.2 bus2=p1ulv37917.1.2 switch=n enabled=y phases=2 Linecode=1P_UG_AL_1/0_Brenau_0_416_0_2_2

New Line.l(r:udm25402-udm25403) Units=km Length=0.00927728 bus1=udm25402.1.2 bus2=udm25403.1.2 switch=n enabled=y phases=2 Linecode=1P_UG_AL_1/0_Brenau_0_416_0_2_2

New Line.l(r:udm25401-udm25402) Units=km Length=0.00926595 bus1=udm25401.1.2 bus2=udm25402.1.2 switch=n enabled=y phases=2 Linecode=1P_UG_AL_1/0_Brenau_0_416_0_2_2

New Line.l(r:udm25401-udt6811lv) Units=km Length=0.00927728 bus1=udt6811lv.1.2 bus2=udm25401.1.2 switch=n enabled=y phases=2 Linecode=1P_UG_AL_4/0_Sweetbriar_0_416_0_2_2

New Line.l(r:p1ulv14403-udm25407) Units=km Length=0.015382200000000002 bus1=udm25407.1.2 bus2=p1ulv14403.1.2 switch=n enabled=y phases=2 Linecode=1P_UG_AL_1/0_Brenau_0_416_0_2_2

New Line.l(r:p1ulv47469-udm25409) Units=km Length=0.0194264 bus1=udm25409.1.2 bus2=p1ulv47469.1.2 switch=n enabled=y phases=2 Linecode=1P_OH_AL_2/0_Rucina_0_416_0_2_2

New Line.l(r:udm25407-udm25409) Units=km Length=0.07240170000000001 bus1=udm25407.1.2 bus2=udm25409.1.2 switch=n enabled=y phases=2 Linecode=1P_OH_AL_4/0_Zuzara_0_416_0_2_2

New Line.l(r:udm25407-udt6812lv) Units=km Length=0.00991782 bus1=udt6812lv.1.2 bus2=udm25407.1.2 switch=n enabled=y phases=2 Linecode=1P_UG_AL_1/0_Brenau_0_416_0_2_2

New Line.l(r:p1ulv31673-udm25408) Units=km Length=0.0127472 bus1=udm25408.1.2 bus2=p1ulv31673.1.2 switch=n enabled=y phases=2 Linecode=1P_UG_AL_1/0_Brenau_0_416_0_2_2

New Line.l(r:udm25408-udt6812lv) Units=km Length=0.019844300000000002 bus1=udt6812lv.1.2 bus2=udm25408.1.2 switch=n enabled=y phases=2 Linecode=1P_UG_AL_1/0_Brenau_0_416_0_2_2

New Line.l(r:p1ulv14405-udt6813lv) Units=km Length=0.0115001 bus1=udt6813lv.1.2 bus2=p1ulv14405.1.2 switch=n enabled=y phases=2 Linecode=1P_UG_AL_1/0_Brenau_0_416_0_2_2

New Line.l(r:p1ulv35302-udt6813lv) Units=km Length=0.00974074 bus1=udt6813lv.1.2 bus2=p1ulv35302.1.2 switch=n enabled=y phases=2 Linecode=1P_UG_AL_1/0_Brenau_0_416_0_2_2

New Line.l(r:p1ulv14412-udm25411) Units=km Length=0.0141522 bus1=udm25411.1.2 bus2=p1ulv14412.1.2 switch=n enabled=y phases=2 Linecode=1P_UG_AL_1/0_Brenau_0_416_0_2_2

New Line.l(r:udm25411-udt6813lv) Units=km Length=0.009690890000000002 bus1=udt6813lv.1.2 bus2=udm25411.1.2 switch=n enabled=y phases=2 Linecode=1P_UG_AL_1/0_Brenau_0_416_0_2_2

New Line.l(r:p1ulv14406-udt6814lv) Units=km Length=0.0206472 bus1=udt6814lv.1.2 bus2=p1ulv14406.1.2 switch=n enabled=y phases=2 Linecode=1P_UG_AL_1/0_Brenau_0_416_0_2_2

New Line.l(r:p1ulv14407-udm25414) Units=km Length=0.0135236 bus1=udm25414.1.2 bus2=p1ulv14407.1.2 switch=n enabled=y phases=2 Linecode=1P_UG_AL_1/0_Brenau_0_416_0_2_2

New Line.l(r:p1ulv42458-udm25414) Units=km Length=0.0113123 bus1=udm25414.1.2 bus2=p1ulv42458.1.2 switch=n enabled=y phases=2 Linecode=1P_UG_AL_1/0_Brenau_0_416_0_2_2

New Line.l(r:udm25414-udt6815lv) Units=km Length=0.0096921 bus1=udt6815lv.1.2 bus2=udm25414.1.2 switch=n enabled=y phases=2 Linecode=1P_UG_AL_1/0_Brenau_0_416_0_2_2

New Line.l(r:p1ulv14415-udm25415) Units=km Length=0.0115537 bus1=udm25415.1.2 bus2=p1ulv14415.1.2 switch=n enabled=y phases=2 Linecode=1P_UG_AL_1/0_Brenau_0_416_0_2_2

New Line.l(r:p1ulv47123-udm25415) Units=km Length=0.0121372 bus1=udm25415.1.2 bus2=p1ulv47123.1.2 switch=n enabled=y phases=2 Linecode=1P_UG_AL_1/0_Brenau_0_416_0_2_2

New Line.l(r:udm25415-udt6815lv) Units=km Length=0.00968096 bus1=udt6815lv.1.2 bus2=udm25415.1.2 switch=n enabled=y phases=2 Linecode=1P_UG_AL_1/0_Brenau_0_416_0_2_2

New Line.l(r:p1ulv14409-udm25419) Units=km Length=0.00617729 bus1=udm25419.1.2 bus2=p1ulv14409.1.2 switch=n enabled=y phases=2 Linecode=1P_UG_AL_4/0_Sweetbriar_0_416_0_2_2

New Line.l(r:p1ulv41190-udm25419) Units=km Length=0.0112689 bus1=udm25419.1.2 bus2=p1ulv41190.1.2 switch=n enabled=y phases=2 Linecode=1P_UG_AL_4/0_Sweetbriar_0_416_0_2_2

New Line.l(r:udm25419-udt6817lv) Units=km Length=0.00767776 bus1=udt6817lv.1.2 bus2=udm25419.1.2 switch=n enabled=y phases=2 Linecode=1P_UG_AL_4/0_Sweetbriar_0_416_0_2_2

New Line.l(r:p1ulv37513-udm25420) Units=km Length=0.00400446 bus1=udm25420.1.2 bus2=p1ulv37513.1.2 switch=n enabled=y phases=2 Linecode=1P_UG_AL_1/0_Brenau_0_416_0_2_2

New Line.l(r:udm25420-udt6817lv) Units=km Length=0.0316736 bus1=udt6817lv.1.2 bus2=udm25420.1.2 switch=n enabled=y phases=2 Linecode=1P_UG_AL_1/0_Brenau_0_416_0_2_2

New Line.l(r:p1ulv14410-udt6818lv) Units=km Length=0.0110514 bus1=udt6818lv.1.2 bus2=p1ulv14410.1.2 switch=n enabled=y phases=2 Linecode=1P_UG_AL_1/0_Brenau_0_416_0_2_2

New Line.l(r:p1ulv45826-udt6818lv) Units=km Length=0.0100616 bus1=udt6818lv.1.2 bus2=p1ulv45826.1.2 switch=n enabled=y phases=2 Linecode=1P_UG_AL_1/0_Brenau_0_416_0_2_2

New Line.l(r:p1ulv14429-udm25423) Units=km Length=0.00676498 bus1=udm25423.1.2 bus2=p1ulv14429.1.2 switch=n enabled=y phases=2 Linecode=1P_UG_AL_1/0_Brenau_0_416_0_2_2

New Line.l(r:p1ulv50522-udm25427) Units=km Length=0.0123921 bus1=udm25427.1.2 bus2=p1ulv50522.1.2 switch=n enabled=y phases=2 Linecode=1P_UG_AL_1/0_Brenau_0_416_0_2_2

New Line.l(r:udm25423-udm25427) Units=km Length=0.0195541 bus1=udm25423.1.2 bus2=udm25427.1.2 switch=n enabled=y phases=2 Linecode=1P_UG_AL_1/0_Brenau_0_416_0_2_2

New Line.l(r:udm25423-udt6818lv) Units=km Length=0.0391243 bus1=udt6818lv.1.2 bus2=udm25423.1.2 switch=n enabled=y phases=2 Linecode=1P_UG_AL_1/0_Brenau_0_416_0_2_2

New Line.l(r:p1ulv33027-udm25424) Units=km Length=0.0133516 bus1=udm25424.1.2 bus2=p1ulv33027.1.2 switch=n enabled=y phases=2 Linecode=1P_UG_AL_1/0_Brenau_0_416_0_2_2

New Line.l(r:p1ulv37452-udm25424) Units=km Length=0.00655519 bus1=udm25424.1.2 bus2=p1ulv37452.1.2 switch=n enabled=y phases=2 Linecode=1P_UG_AL_1/0_Brenau_0_416_0_2_2

New Line.l(r:udm25424-udt6818lv) Units=km Length=0.029334200000000005 bus1=udt6818lv.1.2 bus2=udm25424.1.2 switch=n enabled=y phases=2 Linecode=1P_UG_AL_1/0_Brenau_0_416_0_2_2

New Line.l(r:p1ulv15953-udt6819lv) Units=km Length=0.00734369 bus1=udt6819lv.1.2 bus2=p1ulv15953.1.2 switch=n enabled=y phases=2 Linecode=1P_UG_AL_1/0_Brenau_0_416_0_2_2

New Line.l(r:p1ulv14411-udm25428) Units=km Length=0.00750873 bus1=udm25428.1.2 bus2=p1ulv14411.1.2 switch=n enabled=y phases=2 Linecode=1P_UG_AL_1/0_Brenau_0_416_0_2_2

New Line.l(r:udm25428-udt6819lv) Units=km Length=0.025201500000000005 bus1=udt6819lv.1.2 bus2=udm25428.1.2 switch=n enabled=y phases=2 Linecode=1P_UG_AL_1/0_Brenau_0_416_0_2_2

New Line.l(r:p1ulv40526-udm25430) Units=km Length=0.0199167 bus1=udm25430.1.2 bus2=p1ulv40526.1.2 switch=n enabled=y phases=2 Linecode=1P_UG_AL_1/0_Brenau_0_416_0_2_2

New Line.l(r:udm25430-udt6819lv) Units=km Length=0.0326533 bus1=udt6819lv.1.2 bus2=udm25430.1.2 switch=n enabled=y phases=2 Linecode=1P_UG_AL_1/0_Brenau_0_416_0_2_2

New Line.l(r:p1ulv14413-udm25431) Units=km Length=0.00284754 bus1=udm25431.1.2 bus2=p1ulv14413.1.2 switch=n enabled=y phases=2 Linecode=1P_UG_AL_4/0_Sweetbriar_0_416_0_2_2

New Line.l(r:udm25431-udt6820lv) Units=km Length=0.00753272 bus1=udt6820lv.1.2 bus2=udm25431.1.2 switch=n enabled=y phases=2 Linecode=1P_UG_AL_4/0_Sweetbriar_0_416_0_2_2

New Line.l(r:p1ulv39183-udm25432) Units=km Length=0.00233549 bus1=udm25432.1.2 bus2=p1ulv39183.1.2 switch=n enabled=y phases=2 Linecode=1P_UG_AL_1/0_Brenau_0_416_0_2_2

New Line.l(r:udm25432-udt6820lv) Units=km Length=0.00753401 bus1=udt6820lv.1.2 bus2=udm25432.1.2 switch=n enabled=y phases=2 Linecode=1P_UG_AL_1/0_Brenau_0_416_0_2_2

New Line.l(r:p1ulv14416-udt6821lv) Units=km Length=0.0104151 bus1=udt6821lv.1.2 bus2=p1ulv14416.1.2 switch=n enabled=y phases=2 Linecode=1P_UG_AL_4/0_Sweetbriar_0_416_0_2_2

New Line.l(r:p1ulv14414-udm25433) Units=km Length=0.0109943 bus1=udm25433.1.2 bus2=p1ulv14414.1.2 switch=n enabled=y phases=2 Linecode=1P_UG_AL_4/0_Sweetbriar_0_416_0_2_2

New Line.l(r:udm25433-udt6821lv) Units=km Length=0.0198302 bus1=udt6821lv.1.2 bus2=udm25433.1.2 switch=n enabled=y phases=2 Linecode=1P_UG_AL_4/0_Sweetbriar_0_416_0_2_2

New Line.l(r:p1ulv38965-udm25435) Units=km Length=0.0103769 bus1=udm25435.1.2 bus2=p1ulv38965.1.2 switch=n enabled=y phases=2 Linecode=1P_UG_AL_1/0_Brenau_0_416_0_2_2

New Line.l(r:udm25435-udt6821lv) Units=km Length=0.00992117 bus1=udt6821lv.1.2 bus2=udm25435.1.2 switch=n enabled=y phases=2 Linecode=1P_UG_AL_1/0_Brenau_0_416_0_2_2

New Line.l(r:p1ulv14417-udt6822lv) Units=km Length=0.0127729 bus1=udt6822lv.1.2 bus2=p1ulv14417.1.2 switch=n enabled=y phases=2 Linecode=1P_UG_AL_4/0_Sweetbriar_0_416_0_2_2

New Line.l(r:p1ulv26074-udm25437) Units=km Length=0.0120906 bus1=udm25437.1.2 bus2=p1ulv26074.1.2 switch=n enabled=y phases=2 Linecode=1P_UG_AL_4/0_Sweetbriar_0_416_0_2_2

New Line.l(r:udm25437-udt6822lv) Units=km Length=0.019335600000000005 bus1=udt6822lv.1.2 bus2=udm25437.1.2 switch=n enabled=y phases=2 Linecode=1P_UG_AL_4/0_Sweetbriar_0_416_0_2_2

New Line.l(r:p1ulv35448-udm25438) Units=km Length=0.00857527 bus1=udm25438.1.2 bus2=p1ulv35448.1.2 switch=n enabled=y phases=2 Linecode=1P_UG_AL_2/0_Converse_0_416_0_2_2

New Line.l(r:udm25438-udt6822lv) Units=km Length=0.00966168 bus1=udt6822lv.1.2 bus2=udm25438.1.2 switch=n enabled=y phases=2 Linecode=1P_UG_AL_2/0_Converse_0_416_0_2_2

New Line.l(r:p1ulv14418-udt6823lv) Units=km Length=0.0136907 bus1=udt6823lv.1.2 bus2=p1ulv14418.1.2 switch=n enabled=y phases=2 Linecode=1P_UG_AL_4/0_Sweetbriar_0_416_0_2_2

New Line.l(r:p1ulv14420-udt6824lv) Units=km Length=0.0074516 bus1=udt6824lv.1.2 bus2=p1ulv14420.1.2 switch=n enabled=y phases=2 Linecode=1P_UG_AL_4/0_Sweetbriar_0_416_0_2_2

New Line.l(r:p1ulv14423-udm25445) Units=km Length=0.0102698 bus1=udm25445.1.2 bus2=p1ulv14423.1.2 switch=n enabled=y phases=2 Linecode=1P_UG_AL_1/0_Brenau_0_416_0_2_2

New Line.l(r:p1ulv38077-udm25445) Units=km Length=0.00949119 bus1=udm25445.1.2 bus2=p1ulv38077.1.2 switch=n enabled=y phases=2 Linecode=1P_UG_AL_1/0_Brenau_0_416_0_2_2

New Line.l(r:udm25445-udt6826lv) Units=km Length=0.009521340000000001 bus1=udt6826lv.1.2 bus2=udm25445.1.2 switch=n enabled=y phases=2 Linecode=1P_UG_AL_1/0_Brenau_0_416_0_2_2

New Line.l(r:p1ulv14425-udm25446) Units=km Length=0.00895612 bus1=udm25446.1.2 bus2=p1ulv14425.1.2 switch=n enabled=y phases=2 Linecode=1P_UG_AL_1/0_Brenau_0_416_0_2_2

New Line.l(r:udm25446-udt6826lv) Units=km Length=0.0190425 bus1=udt6826lv.1.2 bus2=udm25446.1.2 switch=n enabled=y phases=2 Linecode=1P_UG_AL_1/0_Brenau_0_416_0_2_2

New Line.l(r:p1ulv30091-udt6828lv) Units=km Length=0.013596300000000002 bus1=udt6828lv.1.2 bus2=p1ulv30091.1.2 switch=n enabled=y phases=2 Linecode=1P_UG_AL_1/0_Brenau_0_416_0_2_2

New Line.l(r:p1ulv14426-udm25450) Units=km Length=0.012322300000000001 bus1=udm25450.1.2 bus2=p1ulv14426.1.2 switch=n enabled=y phases=2 Linecode=1P_UG_AL_1/0_Brenau_0_416_0_2_2

New Line.l(r:udm25450-udt6828lv) Units=km Length=0.00984025 bus1=udt6828lv.1.2 bus2=udm25450.1.2 switch=n enabled=y phases=2 Linecode=1P_UG_AL_1/0_Brenau_0_416_0_2_2

New Line.l(r:p1ulv14428-udm25453) Units=km Length=0.0122296 bus1=udm25453.1.2 bus2=p1ulv14428.1.2 switch=n enabled=y phases=2 Linecode=1P_UG_AL_1/0_Brenau_0_416_0_2_2

New Line.l(r:udm25453-udt6830lv) Units=km Length=0.0654432 bus1=udt6830lv.1.2 bus2=udm25453.1.2 switch=n enabled=y phases=2 Linecode=1P_UG_AL_1/0_Brenau_0_416_0_2_2

New Line.l(r:p1ulv39407-udm25455) Units=km Length=0.0232423 bus1=udm25455.1.2 bus2=p1ulv39407.1.2 switch=n enabled=y phases=2 Linecode=1P_UG_AL_1/0_Brenau_0_416_0_2_2

New Line.l(r:p1ulv14435-udm25454) Units=km Length=0.0228647 bus1=udm25454.1.2 bus2=p1ulv14435.1.2 switch=n enabled=y phases=2 Linecode=1P_UG_AL_1/0_Brenau_0_416_0_2_2

New Line.l(r:udm25454-udm25455) Units=km Length=0.0183111 bus1=udm25455.1.2 bus2=udm25454.1.2 switch=n enabled=y phases=2 Linecode=1P_UG_AL_1/0_Brenau_0_416_0_2_2

New Line.l(r:udm25455-udt6830lv) Units=km Length=0.00915055 bus1=udt6830lv.1.2 bus2=udm25455.1.2 switch=n enabled=y phases=2 Linecode=1P_UG_AL_1/0_Brenau_0_416_0_2_2

New Line.l(r:p1ulv14437-udt6831lv) Units=km Length=0.00867439 bus1=udt6831lv.1.2 bus2=p1ulv14437.1.2 switch=n enabled=y phases=2 Linecode=1P_UG_AL_1/0_Brenau_0_416_0_2_2

New Line.l(r:p1ulv14430-udm25456) Units=km Length=0.00989849 bus1=udm25456.1.2 bus2=p1ulv14430.1.2 switch=n enabled=y phases=2 Linecode=1P_UG_AL_1/0_Brenau_0_416_0_2_2

New Line.l(r:p1ulv40600-udm25456) Units=km Length=0.0090902 bus1=udm25456.1.2 bus2=p1ulv40600.1.2 switch=n enabled=y phases=2 Linecode=1P_UG_AL_1/0_Brenau_0_416_0_2_2

New Line.l(r:p1ulv27005-udm25458) Units=km Length=0.00961437 bus1=udm25458.1.2 bus2=p1ulv27005.1.2 switch=n enabled=y phases=2 Linecode=1P_UG_AL_1/0_Brenau_0_416_0_2_2

New Line.l(r:p1ulv28797-udm25458) Units=km Length=0.00805016 bus1=udm25458.1.2 bus2=p1ulv28797.1.2 switch=n enabled=y phases=2 Linecode=1P_UG_AL_1/0_Brenau_0_416_0_2_2

New Line.l(r:p1ulv31308-udm25461) Units=km Length=0.00965859 bus1=udm25461.1.2 bus2=p1ulv31308.1.2 switch=n enabled=y phases=2 Linecode=1P_UG_AL_1/0_Brenau_0_416_0_2_2

New Line.l(r:udm25458-udm25461) Units=km Length=0.0190425 bus1=udm25458.1.2 bus2=udm25461.1.2 switch=n enabled=y phases=2 Linecode=1P_UG_AL_1/0_Brenau_0_416_0_2_2

New Line.l(r:udm25456-udm25458) Units=km Length=0.009521340000000001 bus1=udm25456.1.2 bus2=udm25458.1.2 switch=n enabled=y phases=2 Linecode=1P_UG_AL_1/0_Brenau_0_416_0_2_2

New Line.l(r:udm25456-udt6831lv) Units=km Length=0.0190425 bus1=udt6831lv.1.2 bus2=udm25456.1.2 switch=n enabled=y phases=2 Linecode=1P_UG_AL_4/0_Sweetbriar_0_416_0_2_2

New Line.l(r:p1ulv28211-udm25459) Units=km Length=0.00683053 bus1=udm25459.1.2 bus2=p1ulv28211.1.2 switch=n enabled=y phases=2 Linecode=1P_UG_AL_1/0_Brenau_0_416_0_2_2

New Line.l(r:p1ulv33252-udm25462) Units=km Length=0.0113133 bus1=udm25462.1.2 bus2=p1ulv33252.1.2 switch=n enabled=y phases=2 Linecode=1P_UG_AL_1/0_Brenau_0_416_0_2_2

New Line.l(r:p1ulv38816-udm25462) Units=km Length=0.0109638 bus1=udm25462.1.2 bus2=p1ulv38816.1.2 switch=n enabled=y phases=2 Linecode=1P_UG_AL_1/0_Brenau_0_416_0_2_2

New Line.l(r:p1ulv36428-udm25463) Units=km Length=0.0113189 bus1=udm25463.1.2 bus2=p1ulv36428.1.2 switch=n enabled=y phases=2 Linecode=1P_UG_AL_1/0_Brenau_0_416_0_2_2

New Line.l(r:udm25462-udm25463) Units=km Length=0.00925999 bus1=udm25462.1.2 bus2=udm25463.1.2 switch=n enabled=y phases=2 Linecode=1P_UG_AL_1/0_Brenau_0_416_0_2_2

New Line.l(r:udm25459-udm25462) Units=km Length=0.0560716 bus1=udm25459.1.2 bus2=udm25462.1.2 switch=n enabled=y phases=2 Linecode=1P_UG_AL_1/0_Brenau_0_416_0_2_2

New Line.l(r:udm25459-udt6831lv) Units=km Length=0.0190427 bus1=udt6831lv.1.2 bus2=udm25459.1.2 switch=n enabled=y phases=2 Linecode=1P_UG_AL_2/0_Converse_0_416_0_2_2

New Line.l(r:p1ulv14434-udm25467) Units=km Length=0.0273784 bus1=udm25467.1.2 bus2=p1ulv14434.1.2 switch=n enabled=y phases=2 Linecode=1P_UG_AL_1/0_Brenau_0_416_0_2_2

New Line.l(r:p1ulv45470-udm25467) Units=km Length=0.00660401 bus1=udm25467.1.2 bus2=p1ulv45470.1.2 switch=n enabled=y phases=2 Linecode=1P_UG_AL_1/0_Brenau_0_416_0_2_2

New Line.l(r:p1ulv44433-udm25471) Units=km Length=0.005789990000000001 bus1=udm25471.1.2 bus2=p1ulv44433.1.2 switch=n enabled=y phases=2 Linecode=1P_UG_AL_1/0_Brenau_0_416_0_2_2

New Line.l(r:p1ulv14431-udm25466) Units=km Length=0.00873756 bus1=udm25466.1.2 bus2=p1ulv14431.1.2 switch=n enabled=y phases=2 Linecode=1P_UG_AL_1/0_Brenau_0_416_0_2_2

New Line.l(r:udm25466-udm25471) Units=km Length=0.019564 bus1=udm25471.1.2 bus2=udm25466.1.2 switch=n enabled=y phases=2 Linecode=1P_UG_AL_1/0_Brenau_0_416_0_2_2

New Line.l(r:udm25467-udm25471) Units=km Length=0.0195528 bus1=udm25467.1.2 bus2=udm25471.1.2 switch=n enabled=y phases=2 Linecode=1P_UG_AL_2/0_Converse_0_416_0_2_2

New Line.l(r:udm25467-udt6832lv) Units=km Length=0.00883647 bus1=udt6832lv.1.2 bus2=udm25467.1.2 switch=n enabled=y phases=2 Linecode=1P_UG_AL_4/0_Sweetbriar_0_416_0_2_2

New Line.l(r:p1ulv35087-udm25469) Units=km Length=0.00943189 bus1=udm25469.1.2 bus2=p1ulv35087.1.2 switch=n enabled=y phases=2 Linecode=1P_UG_AL_2/0_Converse_0_416_0_2_2

New Line.l(r:p1ulv33681-udm25468) Units=km Length=0.0163963 bus1=udm25468.1.2 bus2=p1ulv33681.1.2 switch=n enabled=y phases=2 Linecode=1P_UG_AL_1/0_Brenau_0_416_0_2_2

New Line.l(r:p1ulv36850-udm25470) Units=km Length=0.016621 bus1=udm25470.1.2 bus2=p1ulv36850.1.2 switch=n enabled=y phases=2 Linecode=1P_UG_AL_1/0_Brenau_0_416_0_2_2

New Line.l(r:udm25468-udm25470) Units=km Length=0.0189242 bus1=udm25468.1.2 bus2=udm25470.1.2 switch=n enabled=y phases=2 Linecode=1P_UG_AL_1/0_Brenau_0_416_0_2_2

New Line.l(r:udm25468-udm25469) Units=km Length=0.04881750000000001 bus1=udm25469.1.2 bus2=udm25468.1.2 switch=n enabled=y phases=2 Linecode=1P_UG_AL_1/0_Brenau_0_416_0_2_2

New Line.l(r:udm25469-udt6832lv) Units=km Length=0.0176729 bus1=udt6832lv.1.2 bus2=udm25469.1.2 switch=n enabled=y phases=2 Linecode=1P_UG_AL_4/0_Sweetbriar_0_416_0_2_2

New Line.l(r:p1ulv56238-udt6837lv) Units=km Length=0.0182945 bus1=udt6837lv.1.2 bus2=p1ulv56238.1.2 switch=n enabled=y phases=2 Linecode=1P_UG_AL_1/0_Brenau_0_416_0_2_2

New Line.l(r:p1ulv14440-udm25485) Units=km Length=0.022586 bus1=udm25485.1.2 bus2=p1ulv14440.1.2 switch=n enabled=y phases=2 Linecode=1P_UG_AL_1/0_Brenau_0_416_0_2_2

New Line.l(r:udm25485-udt6837lv) Units=km Length=0.007739930000000001 bus1=udt6837lv.1.2 bus2=udm25485.1.2 switch=n enabled=y phases=2 Linecode=1P_UG_AL_1/0_Brenau_0_416_0_2_2

New Line.l(r:p1ulv14442-udm25486) Units=km Length=0.0185935 bus1=udm25486.1.2 bus2=p1ulv14442.1.2 switch=n enabled=y phases=2 Linecode=1P_UG_AL_1/0_Brenau_0_416_0_2_2

New Line.l(r:udm25486-udt6837lv) Units=km Length=0.0187044 bus1=udt6837lv.1.2 bus2=udm25486.1.2 switch=n enabled=y phases=2 Linecode=1P_UG_AL_1/0_Brenau_0_416_0_2_2

New Line.l(r:p1ulv14441-udt6838lv) Units=km Length=0.0150819 bus1=udt6838lv.1.2 bus2=p1ulv14441.1.2 switch=n enabled=y phases=2 Linecode=1P_UG_AL_1/0_Brenau_0_416_0_2_2

New Line.l(r:p1ulv52155-udt6838lv) Units=km Length=0.0256099 bus1=udt6838lv.1.2 bus2=p1ulv52155.1.2 switch=n enabled=y phases=2 Linecode=1P_UG_AL_1/0_Brenau_0_416_0_2_2

New Line.l(r:p1ulv14461-udm25490) Units=km Length=0.00826097 bus1=udm25490.1.2 bus2=p1ulv14461.1.2 switch=n enabled=y phases=2 Linecode=1P_UG_AL_1/0_Brenau_0_416_0_2_2

New Line.l(r:p1ulv51785-udm25490) Units=km Length=0.00863836 bus1=udm25490.1.2 bus2=p1ulv51785.1.2 switch=n enabled=y phases=2 Linecode=1P_UG_AL_1/0_Brenau_0_416_0_2_2

New Line.l(r:udm25490-udt6838lv) Units=km Length=0.0296176 bus1=udt6838lv.1.2 bus2=udm25490.1.2 switch=n enabled=y phases=2 Linecode=1P_UG_AL_1/0_Brenau_0_416_0_2_2

New Line.l(r:p1ulv58439-udm25493) Units=km Length=0.007251180000000001 bus1=udm25493.1.2 bus2=p1ulv58439.1.2 switch=n enabled=y phases=2 Linecode=1P_UG_AL_1/0_Brenau_0_416_0_2_2

New Line.l(r:p1ulv14456-udm25489) Units=km Length=0.006663820000000001 bus1=udm25489.1.2 bus2=p1ulv14456.1.2 switch=n enabled=y phases=2 Linecode=1P_UG_AL_1/0_Brenau_0_416_0_2_2

New Line.l(r:p1ulv60074-udm25494) Units=km Length=0.0126367 bus1=udm25494.1.2 bus2=p1ulv60074.1.2 switch=n enabled=y phases=2 Linecode=1P_UG_AL_1/0_Brenau_0_416_0_2_2

New Line.l(r:udm25489-udm25494) Units=km Length=0.00988245 bus1=udm25489.1.2 bus2=udm25494.1.2 switch=n enabled=y phases=2 Linecode=1P_UG_AL_1/0_Brenau_0_416_0_2_2

New Line.l(r:udm25489-udm25493) Units=km Length=0.0197449 bus1=udm25493.1.2 bus2=udm25489.1.2 switch=n enabled=y phases=2 Linecode=1P_UG_AL_1/0_Brenau_0_416_0_2_2

New Line.l(r:udm25493-udt6838lv) Units=km Length=0.00987245 bus1=udt6838lv.1.2 bus2=udm25493.1.2 switch=n enabled=y phases=2 Linecode=1P_UG_AL_2/0_Converse_0_416_0_2_2

New Line.l(r:p1ulv14443-udt6839lv) Units=km Length=0.0128432 bus1=udt6839lv.1.2 bus2=p1ulv14443.1.2 switch=n enabled=y phases=2 Linecode=1P_UG_AL_1/0_Brenau_0_416_0_2_2

New Line.l(r:p1ulv53351-udt6839lv) Units=km Length=0.0157108 bus1=udt6839lv.1.2 bus2=p1ulv53351.1.2 switch=n enabled=y phases=2 Linecode=1P_UG_AL_1/0_Brenau_0_416_0_2_2

New Line.l(r:p1ulv14447-udm25496) Units=km Length=0.013694 bus1=udm25496.1.2 bus2=p1ulv14447.1.2 switch=n enabled=y phases=2 Linecode=1P_UG_AL_1/0_Brenau_0_416_0_2_2

New Line.l(r:p1ulv58939-udm25496) Units=km Length=0.0117678 bus1=udm25496.1.2 bus2=p1ulv58939.1.2 switch=n enabled=y phases=2 Linecode=1P_UG_AL_1/0_Brenau_0_416_0_2_2

New Line.l(r:udm25496-udt6839lv) Units=km Length=0.0196791 bus1=udt6839lv.1.2 bus2=udm25496.1.2 switch=n enabled=y phases=2 Linecode=1P_UG_AL_1/0_Brenau_0_416_0_2_2

New Line.l(r:p1ulv14565-udm25497) Units=km Length=0.0146498 bus1=udm25497.1.2 bus2=p1ulv14565.1.2 switch=n enabled=y phases=2 Linecode=1P_UG_AL_1/0_Brenau_0_416_0_2_2

New Line.l(r:p1ulv60437-udm25497) Units=km Length=0.00843342 bus1=udm25497.1.2 bus2=p1ulv60437.1.2 switch=n enabled=y phases=2 Linecode=1P_UG_AL_1/0_Brenau_0_416_0_2_2

New Line.l(r:p1ulv58105-udm25499) Units=km Length=0.01392 bus1=udm25499.1.2 bus2=p1ulv58105.1.2 switch=n enabled=y phases=2 Linecode=1P_UG_AL_1/0_Brenau_0_416_0_2_2

New Line.l(r:udm25497-udm25499) Units=km Length=0.0295137 bus1=udm25497.1.2 bus2=udm25499.1.2 switch=n enabled=y phases=2 Linecode=1P_UG_AL_1/0_Brenau_0_416_0_2_2

New Line.l(r:udm25497-udt6839lv) Units=km Length=0.00984488 bus1=udt6839lv.1.2 bus2=udm25497.1.2 switch=n enabled=y phases=2 Linecode=1P_UG_AL_2/0_Converse_0_416_0_2_2

New Line.l(r:p1ulv14444-udt6840lv) Units=km Length=0.0649624 bus1=udt6840lv.1.2 bus2=p1ulv14444.1.2 switch=n enabled=y phases=2 Linecode=1P_UG_AL_1/0_Brenau_0_416_0_2_2

New Line.l(r:p1ulv49810-udt6840lv) Units=km Length=0.0240265 bus1=udt6840lv.1.2 bus2=p1ulv49810.1.2 switch=n enabled=y phases=2 Linecode=1P_UG_AL_2/0_Converse_0_416_0_2_2

New Line.l(r:p1ulv14445-udt6841lv) Units=km Length=0.0218209 bus1=udt6841lv.1.2 bus2=p1ulv14445.1.2 switch=n enabled=y phases=2 Linecode=1P_OH_AL_2/0_Rucina_0_416_0_2_2

New Line.l(r:p1ulv46905-udm25505) Units=km Length=0.02058 bus1=udm25505.1.2 bus2=p1ulv46905.1.2 switch=n enabled=y phases=2 Linecode=1P_OH_AL_2/0_Rucina_0_416_0_2_2

New Line.l(r:udm25505-udt6841lv) Units=km Length=0.019916200000000002 bus1=udt6841lv.1.2 bus2=udm25505.1.2 switch=n enabled=y phases=2 Linecode=1P_OH_AL_2/0_Rucina_0_416_0_2_2

New Line.l(r:p1ulv50203-udm25506) Units=km Length=0.0223668 bus1=udm25506.1.2 bus2=p1ulv50203.1.2 switch=n enabled=y phases=2 Linecode=1P_OH_AL_2/0_Rucina_0_416_0_2_2

New Line.l(r:udm25506-udt6841lv) Units=km Length=0.019915300000000004 bus1=udt6841lv.1.2 bus2=udm25506.1.2 switch=n enabled=y phases=2 Linecode=1P_OH_AL_2/0_Rucina_0_416_0_2_2

New Line.l(r:p1ulv14446-udt6842lv) Units=km Length=0.0519517 bus1=udt6842lv.1.2 bus2=p1ulv14446.1.2 switch=n enabled=y phases=2 Linecode=1P_UG_AL_1/0_Brenau_0_416_0_2_2

New Line.l(r:p1ulv59954-udm25508) Units=km Length=0.0111976 bus1=udm25508.1.2 bus2=p1ulv59954.1.2 switch=n enabled=y phases=2 Linecode=1P_UG_AL_4/0_Sweetbriar_0_416_0_2_2

New Line.l(r:udm25508-udt6842lv) Units=km Length=0.00904588 bus1=udt6842lv.1.2 bus2=udm25508.1.2 switch=n enabled=y phases=2 Linecode=1P_UG_AL_4/0_Sweetbriar_0_416_0_2_2

New Line.l(r:p1ulv14468-udt6843lv) Units=km Length=0.0186073 bus1=udt6843lv.1.2 bus2=p1ulv14468.1.2 switch=n enabled=y phases=2 Linecode=1P_OH_AL_2/0_Rucina_0_416_0_2_2

New Line.l(r:p1ulv52564-udt6843lv) Units=km Length=0.0189822 bus1=udt6843lv.1.2 bus2=p1ulv52564.1.2 switch=n enabled=y phases=2 Linecode=1P_OH_AL_2/0_Rucina_0_416_0_2_2

New Line.l(r:p1ulv14448-udm25509) Units=km Length=0.0190237 bus1=udm25509.1.2 bus2=p1ulv14448.1.2 switch=n enabled=y phases=2 Linecode=1P_OH_AL_2/0_Rucina_0_416_0_2_2

New Line.l(r:p1ulv54955-udm25514) Units=km Length=0.00724509 bus1=udm25514.1.2 bus2=p1ulv54955.1.2 switch=n enabled=y phases=2 Linecode=1P_OH_AL_2/0_Rucina_0_416_0_2_2

New Line.l(r:udm25509-udm25514) Units=km Length=0.0174439 bus1=udm25509.1.2 bus2=udm25514.1.2 switch=n enabled=y phases=2 Linecode=1P_OH_AL_2/0_Rucina_0_416_0_2_2

New Line.l(r:udm25509-udt6843lv) Units=km Length=0.0142576 bus1=udt6843lv.1.2 bus2=udm25509.1.2 switch=n enabled=y phases=2 Linecode=1P_OH_AL_2/0_Rucina_0_416_0_2_2

New Line.l(r:p1ulv53983-udm25513) Units=km Length=0.0188171 bus1=udm25513.1.2 bus2=p1ulv53983.1.2 switch=n enabled=y phases=2 Linecode=1P_OH_AL_2/0_Rucina_0_416_0_2_2

New Line.l(r:p1ulv49634-udm25511) Units=km Length=0.017765 bus1=udm25511.1.2 bus2=p1ulv49634.1.2 switch=n enabled=y phases=2 Linecode=1P_OH_AL_2/0_Rucina_0_416_0_2_2

New Line.l(r:p1ulv60904-udm25511) Units=km Length=0.0183766 bus1=udm25511.1.2 bus2=p1ulv60904.1.2 switch=n enabled=y phases=2 Linecode=1P_OH_AL_2/0_Rucina_0_416_0_2_2

New Line.l(r:udm25511-udm25513) Units=km Length=0.0155934 bus1=udm25513.1.2 bus2=udm25511.1.2 switch=n enabled=y phases=2 Linecode=1P_OH_AL_2/0_Rucina_0_416_0_2_2

New Line.l(r:udm25513-udt6843lv) Units=km Length=0.015581 bus1=udt6843lv.1.2 bus2=udm25513.1.2 switch=n enabled=y phases=2 Linecode=1P_OH_AL_2/0_Rucina_0_416_0_2_2

New Line.l(r:p1ulv14449-udt6844lv) Units=km Length=0.0175946 bus1=udt6844lv.1.2 bus2=p1ulv14449.1.2 switch=n enabled=y phases=2 Linecode=1P_UG_AL_1/0_Brenau_0_416_0_2_2

New Line.l(r:p1ulv61146-udt6844lv) Units=km Length=0.013567 bus1=udt6844lv.1.2 bus2=p1ulv61146.1.2 switch=n enabled=y phases=2 Linecode=1P_UG_AL_1/0_Brenau_0_416_0_2_2

New Line.l(r:p1ulv14467-udm25517) Units=km Length=0.0174678 bus1=udm25517.1.2 bus2=p1ulv14467.1.2 switch=n enabled=y phases=2 Linecode=1P_UG_AL_1/0_Brenau_0_416_0_2_2