New Line.l(r:p1ulv41821-udt168lv) Units=km Length=0.02789 bus1=udt168lv.1.2 bus2=p1ulv41821.1.2 switch=n enabled=y phases=2 Linecode=1P_OH_AL_4/0_Zuzara_0_416_0_2_2

New Line.l(r:p1ulv208-udm613) Units=km Length=0.0279023 bus1=udm613.1.2 bus2=p1ulv208.1.2 switch=n enabled=y phases=2 Linecode=1P_OH_AL_4/0_Zuzara_0_416_0_2_2

New Line.l(r:udm613-udt168lv) Units=km Length=0.016970400000000004 bus1=udt168lv.1.2 bus2=udm613.1.2 switch=n enabled=y phases=2 Linecode=1P_OH_AL_2/0_Rucina_0_416_0_2_2

New Line.l(r:p1ulv49876-udm615) Units=km Length=0.0279857 bus1=udm615.1.2 bus2=p1ulv49876.1.2 switch=n enabled=y phases=2 Linecode=1P_OH_AL_4/0_Zuzara_0_416_0_2_2

New Line.l(r:udm615-udt168lv) Units=km Length=0.026084 bus1=udt168lv.1.2 bus2=udm615.1.2 switch=n enabled=y phases=2 Linecode=1P_OH_AL_2/0_Rucina_0_416_0_2_2

New Line.l(r:p1ulv210-udt170lv) Units=km Length=0.027460600000000005 bus1=udt170lv.1.2 bus2=p1ulv210.1.2 switch=n enabled=y phases=2 Linecode=1P_OH_AL_4/0_Zuzara_0_416_0_2_2

New Line.l(r:p1ulv213-udm620) Units=km Length=0.0219145 bus1=udm620.1.2 bus2=p1ulv213.1.2 switch=n enabled=y phases=2 Linecode=1P_OH_AL_2/0_Rucina_0_416_0_2_2

New Line.l(r:udm620-udt170lv) Units=km Length=0.0361396 bus1=udt170lv.1.2 bus2=udm620.1.2 switch=n enabled=y phases=2 Linecode=1P_OH_AL_4/0_Zuzara_0_416_0_2_2

New Line.l(r:p1ulv57517-udm621) Units=km Length=0.0275415 bus1=udm621.1.2 bus2=p1ulv57517.1.2 switch=n enabled=y phases=2 Linecode=1P_OH_AL_4/0_Zuzara_0_416_0_2_2

New Line.l(r:udm621-udt170lv) Units=km Length=0.0165056 bus1=udt170lv.1.2 bus2=udm621.1.2 switch=n enabled=y phases=2 Linecode=1P_OH_AL_2/0_Rucina_0_416_0_2_2

New Line.l(r:p1ulv990-udm2210) Units=km Length=0.019234300000000003 bus1=udm2210.1.2 bus2=p1ulv990.1.2 switch=n enabled=y phases=2 Linecode=1P_UG_AL_1/0_Brenau_0_416_0_2_2

New Line.l(r:p1ulv43611-udm2211) Units=km Length=0.0193994 bus1=udm2211.1.2 bus2=p1ulv43611.1.2 switch=n enabled=y phases=2 Linecode=1P_UG_AL_1/0_Brenau_0_416_0_2_2

New Line.l(r:udm2210-udm2211) Units=km Length=0.00905539 bus1=udm2210.1.2 bus2=udm2211.1.2 switch=n enabled=y phases=2 Linecode=1P_UG_AL_1/0_Brenau_0_416_0_2_2

New Line.l(r:udm2210-udt544lv) Units=km Length=0.00905539 bus1=udt544lv.1.2 bus2=udm2210.1.2 switch=n enabled=y phases=2 Linecode=1P_UG_AL_1/0_Brenau_0_416_0_2_2

New Line.l(r:p1ulv49642-udm2212) Units=km Length=0.0198445 bus1=udm2212.1.2 bus2=p1ulv49642.1.2 switch=n enabled=y phases=2 Linecode=1P_UG_AL_1/0_Brenau_0_416_0_2_2

New Line.l(r:udm2212-udt544lv) Units=km Length=0.00905539 bus1=udt544lv.1.2 bus2=udm2212.1.2 switch=n enabled=y phases=2 Linecode=1P_UG_AL_1/0_Brenau_0_416_0_2_2

New Line.l(r:p1ulv996-udt545lv) Units=km Length=0.0163064 bus1=udt545lv.1.2 bus2=p1ulv996.1.2 switch=n enabled=y phases=2 Linecode=1P_OH_AL_2/0_Rucina_0_416_0_2_2

New Line.l(r:p1ulv52233-udt545lv) Units=km Length=0.0189068 bus1=udt545lv.1.2 bus2=p1ulv52233.1.2 switch=n enabled=y phases=2 Linecode=1P_OH_AL_2/0_Rucina_0_416_0_2_2

New Line.l(r:p1ulv991-udm2213) Units=km Length=0.0194497 bus1=udm2213.1.2 bus2=p1ulv991.1.2 switch=n enabled=y phases=2 Linecode=1P_OH_AL_2/0_Rucina_0_416_0_2_2

New Line.l(r:p1ulv57912-udm2213) Units=km Length=0.0178889 bus1=udm2213.1.2 bus2=p1ulv57912.1.2 switch=n enabled=y phases=2 Linecode=1P_OH_AL_2/0_Rucina_0_416_0_2_2

New Line.l(r:udm2213-udt545lv) Units=km Length=0.0195075 bus1=udt545lv.1.2 bus2=udm2213.1.2 switch=n enabled=y phases=2 Linecode=1P_OH_AL_2/0_Rucina_0_416_0_2_2

New Line.l(r:p1ulv993-udt547lv) Units=km Length=0.0331106 bus1=udt547lv.1.2 bus2=p1ulv993.1.2 switch=n enabled=y phases=2 Linecode=1P_OH_AL_4/0_Zuzara_0_416_0_2_2

New Line.l(r:p1ulv44756-udm2221) Units=km Length=0.008672190000000001 bus1=udm2221.1.2 bus2=p1ulv44756.1.2 switch=n enabled=y phases=2 Linecode=1P_OH_AL_2/0_Rucina_0_416_0_2_2

New Line.l(r:p1ulv45264-udm2221) Units=km Length=0.0189962 bus1=udm2221.1.2 bus2=p1ulv45264.1.2 switch=n enabled=y phases=2 Linecode=1P_OH_AL_2/0_Rucina_0_416_0_2_2

New Line.l(r:p1ulv53347-udm2221) Units=km Length=0.00950592 bus1=udm2221.1.2 bus2=p1ulv53347.1.2 switch=n enabled=y phases=2 Linecode=1P_OH_AL_2/0_Rucina_0_416_0_2_2

New Line.l(r:p1ulv59832-udm2226) Units=km Length=0.0134019 bus1=udm2226.1.2 bus2=p1ulv59832.1.2 switch=n enabled=y phases=2 Linecode=1P_OH_AL_2/0_Rucina_0_416_0_2_2

New Line.l(r:p1ulv994-udm2219) Units=km Length=0.0117434 bus1=udm2219.1.2 bus2=p1ulv994.1.2 switch=n enabled=y phases=2 Linecode=1P_OH_AL_2/0_Rucina_0_416_0_2_2

New Line.l(r:udm2219-udm2226) Units=km Length=0.0170038 bus1=udm2226.1.2 bus2=udm2219.1.2 switch=n enabled=y phases=2 Linecode=1P_OH_AL_2/0_Rucina_0_416_0_2_2

New Line.l(r:udm2221-udm2226) Units=km Length=0.0195078 bus1=udm2221.1.2 bus2=udm2226.1.2 switch=n enabled=y phases=2 Linecode=1P_OH_AL_2/0_Rucina_0_416_0_2_2

New Line.l(r:udm2221-udt547lv) Units=km Length=0.0195075 bus1=udt547lv.1.2 bus2=udm2221.1.2 switch=n enabled=y phases=2 Linecode=1P_OH_AL_2/0_Rucina_0_416_0_2_2

New Line.l(r:p1ulv46793-udm2223) Units=km Length=0.0143037 bus1=udm2223.1.2 bus2=p1ulv46793.1.2 switch=n enabled=y phases=2 Linecode=1P_OH_AL_2/0_Rucina_0_416_0_2_2

New Line.l(r:p1ulv43552-udm2220) Units=km Length=0.0159913 bus1=udm2220.1.2 bus2=p1ulv43552.1.2 switch=n enabled=y phases=2 Linecode=1P_OH_AL_2/0_Rucina_0_416_0_2_2

New Line.l(r:p1ulv55421-udm2220) Units=km Length=0.0186088 bus1=udm2220.1.2 bus2=p1ulv55421.1.2 switch=n enabled=y phases=2 Linecode=1P_OH_AL_2/0_Rucina_0_416_0_2_2

New Line.l(r:udm2220-udm2223) Units=km Length=0.0195075 bus1=udm2223.1.2 bus2=udm2220.1.2 switch=n enabled=y phases=2 Linecode=1P_OH_AL_2/0_Rucina_0_416_0_2_2

New Line.l(r:udm2223-udt547lv) Units=km Length=0.019517500000000004 bus1=udt547lv.1.2 bus2=udm2223.1.2 switch=n enabled=y phases=2 Linecode=1P_OH_AL_2/0_Rucina_0_416_0_2_2

New Line.l(r:p1ulv995-udm2227) Units=km Length=0.0202033 bus1=udm2227.1.2 bus2=p1ulv995.1.2 switch=n enabled=y phases=2 Linecode=1P_OH_AL_2/0_Rucina_0_416_0_2_2

New Line.l(r:p1ulv57000-udm2229) Units=km Length=0.0121936 bus1=udm2229.1.2 bus2=p1ulv57000.1.2 switch=n enabled=y phases=2 Linecode=1P_OH_AL_2/0_Rucina_0_416_0_2_2

New Line.l(r:udm2227-udm2229) Units=km Length=0.0195585 bus1=udm2227.1.2 bus2=udm2229.1.2 switch=n enabled=y phases=2 Linecode=1P_OH_AL_2/0_Rucina_0_416_0_2_2

New Line.l(r:udm2227-udt548lv) Units=km Length=0.0195485 bus1=udt548lv.1.2 bus2=udm2227.1.2 switch=n enabled=y phases=2 Linecode=1P_OH_AL_2/0_Rucina_0_416_0_2_2

New Line.l(r:p1ulv55824-udm2228) Units=km Length=0.018821 bus1=udm2228.1.2 bus2=p1ulv55824.1.2 switch=n enabled=y phases=2 Linecode=1P_OH_AL_2/0_Rucina_0_416_0_2_2

New Line.l(r:udm2228-udt548lv) Units=km Length=0.0390965 bus1=udt548lv.1.2 bus2=udm2228.1.2 switch=n enabled=y phases=2 Linecode=1P_OH_AL_4/0_Zuzara_0_416_0_2_2

New Line.l(r:p1ulv52575-udt549lv) Units=km Length=0.0158482 bus1=udt549lv.1.2 bus2=p1ulv52575.1.2 switch=n enabled=y phases=2 Linecode=1P_OH_AL_2/0_Rucina_0_416_0_2_2

New Line.l(r:p1ulv60508-udt549lv) Units=km Length=0.0179364 bus1=udt549lv.1.2 bus2=p1ulv60508.1.2 switch=n enabled=y phases=2 Linecode=1P_OH_AL_2/0_Rucina_0_416_0_2_2

New Line.l(r:p1ulv997-udm2230) Units=km Length=0.0148268 bus1=udm2230.1.2 bus2=p1ulv997.1.2 switch=n enabled=y phases=2 Linecode=1P_OH_AL_2/0_Rucina_0_416_0_2_2

New Line.l(r:p1ulv59440-udm2230) Units=km Length=0.0165159 bus1=udm2230.1.2 bus2=p1ulv59440.1.2 switch=n enabled=y phases=2 Linecode=1P_OH_AL_2/0_Rucina_0_416_0_2_2

New Line.l(r:udm2230-udt549lv) Units=km Length=0.0195075 bus1=udt549lv.1.2 bus2=udm2230.1.2 switch=n enabled=y phases=2 Linecode=1P_OH_AL_2/0_Rucina_0_416_0_2_2

New Line.l(r:p1ulv998-udt550lv) Units=km Length=0.0174056 bus1=udt550lv.1.2 bus2=p1ulv998.1.2 switch=n enabled=y phases=2 Linecode=1P_OH_AL_2/0_Rucina_0_416_0_2_2

New Line.l(r:p1ulv60665-udt550lv) Units=km Length=0.0146488 bus1=udt550lv.1.2 bus2=p1ulv60665.1.2 switch=n enabled=y phases=2 Linecode=1P_OH_AL_2/0_Rucina_0_416_0_2_2

New Line.l(r:p1ulv61083-udm2236) Units=km Length=0.0240804 bus1=udm2236.1.2 bus2=p1ulv61083.1.2 switch=n enabled=y phases=2 Linecode=1P_OH_AL_2/0_Rucina_0_416_0_2_2

New Line.l(r:udm2236-udt550lv) Units=km Length=0.0180899 bus1=udt550lv.1.2 bus2=udm2236.1.2 switch=n enabled=y phases=2 Linecode=1P_OH_AL_2/0_Rucina_0_416_0_2_2

New Line.l(r:p1ulv47039-udm2238) Units=km Length=0.0179078 bus1=udm2238.1.2 bus2=p1ulv47039.1.2 switch=n enabled=y phases=2 Linecode=1P_UG_AL_1/0_Brenau_0_416_0_2_2

New Line.l(r:p1ulv55548-udm2240) Units=km Length=0.0165228 bus1=udm2240.1.2 bus2=p1ulv55548.1.2 switch=n enabled=y phases=2 Linecode=1P_UG_AL_1/0_Brenau_0_416_0_2_2

New Line.l(r:udm2238-udm2240) Units=km Length=0.0546114 bus1=udm2238.1.2 bus2=udm2240.1.2 switch=n enabled=y phases=2 Linecode=1P_UG_AL_1/0_Brenau_0_416_0_2_2

New Line.l(r:udm2238-udt551lv) Units=km Length=0.0169574 bus1=udt551lv.1.2 bus2=udm2238.1.2 switch=n enabled=y phases=2 Linecode=1P_UG_AL_1/0_Brenau_0_416_0_2_2

New Line.l(r:p1ulv57587-udm2241) Units=km Length=0.0199197 bus1=udm2241.1.2 bus2=p1ulv57587.1.2 switch=n enabled=y phases=2 Linecode=1P_UG_AL_1/0_Brenau_0_416_0_2_2

New Line.l(r:p1ulv999-udm2237) Units=km Length=0.0199208 bus1=udm2237.1.2 bus2=p1ulv999.1.2 switch=n enabled=y phases=2 Linecode=1P_UG_AL_1/0_Brenau_0_416_0_2_2

New Line.l(r:p1ulv55019-udm2239) Units=km Length=0.0186686 bus1=udm2239.1.2 bus2=p1ulv55019.1.2 switch=n enabled=y phases=2 Linecode=1P_UG_AL_1/0_Brenau_0_416_0_2_2

New Line.l(r:p1ulv58154-udm2239) Units=km Length=0.025643900000000004 bus1=udm2239.1.2 bus2=p1ulv58154.1.2 switch=n enabled=y phases=2 Linecode=1P_UG_AL_1/0_Brenau_0_416_0_2_2

New Line.l(r:udm2237-udm2239) Units=km Length=0.0084708 bus1=udm2237.1.2 bus2=udm2239.1.2 switch=n enabled=y phases=2 Linecode=1P_UG_AL_1/0_Brenau_0_416_0_2_2

New Line.l(r:udm2237-udm2241) Units=km Length=0.00846547 bus1=udm2241.1.2 bus2=udm2237.1.2 switch=n enabled=y phases=2 Linecode=1P_UG_AL_4/0_Sweetbriar_0_416_0_2_2

New Line.l(r:udm2241-udt551lv) Units=km Length=0.00781463 bus1=udt551lv.1.2 bus2=udm2241.1.2 switch=n enabled=y phases=2 Linecode=1P_UG_AL_4/0_Sweetbriar_0_416_0_2_2

New Line.l(r:p1ulv1005-udt557lv) Units=km Length=0.0189224 bus1=udt557lv.1.2 bus2=p1ulv1005.1.2 switch=n enabled=y phases=2 Linecode=1P_OH_AL_2/0_Rucina_0_416_0_2_2

New Line.l(r:p1ulv44807-udt557lv) Units=km Length=0.022154400000000005 bus1=udt557lv.1.2 bus2=p1ulv44807.1.2 switch=n enabled=y phases=2 Linecode=1P_OH_AL_2/0_Rucina_0_416_0_2_2

New Line.l(r:p1ulv61152-udt557lv) Units=km Length=0.0438322 bus1=udt557lv.1.2 bus2=p1ulv61152.1.2 switch=n enabled=y phases=2 Linecode=1P_OH_AL_4/0_Zuzara_0_416_0_2_2

New Line.l(r:p1ulv45133-udm2273) Units=km Length=0.021967900000000002 bus1=udm2273.1.2 bus2=p1ulv45133.1.2 switch=n enabled=y phases=2 Linecode=1P_OH_AL_2/0_Rucina_0_416_0_2_2

New Line.l(r:p1ulv51793-udm2274) Units=km Length=0.0206032 bus1=udm2274.1.2 bus2=p1ulv51793.1.2 switch=n enabled=y phases=2 Linecode=1P_OH_AL_2/0_Rucina_0_416_0_2_2

New Line.l(r:udm2273-udm2274) Units=km Length=0.0321275 bus1=udm2273.1.2 bus2=udm2274.1.2 switch=n enabled=y phases=2 Linecode=1P_OH_AL_4/0_Zuzara_0_416_0_2_2

New Line.l(r:udm2273-udt557lv) Units=km Length=0.0116043 bus1=udt557lv.1.2 bus2=udm2273.1.2 switch=n enabled=y phases=2 Linecode=1P_OH_AL_2/0_Rucina_0_416_0_2_2

New Line.l(r:p1ulv60081-udm2276) Units=km Length=0.0214534 bus1=udm2276.1.2 bus2=p1ulv60081.1.2 switch=n enabled=y phases=2 Linecode=1P_OH_AL_2/0_Rucina_0_416_0_2_2

New Line.l(r:p1ulv56371-udm2275) Units=km Length=0.022144000000000004 bus1=udm2275.1.2 bus2=p1ulv56371.1.2 switch=n enabled=y phases=2 Linecode=1P_OH_AL_2/0_Rucina_0_416_0_2_2

New Line.l(r:udm2275-udm2276) Units=km Length=0.0187856 bus1=udm2276.1.2 bus2=udm2275.1.2 switch=n enabled=y phases=2 Linecode=1P_OH_AL_2/0_Rucina_0_416_0_2_2

New Line.l(r:udm2276-udt557lv) Units=km Length=0.011602000000000001 bus1=udt557lv.1.2 bus2=udm2276.1.2 switch=n enabled=y phases=2 Linecode=1P_OH_AL_2/0_Rucina_0_416_0_2_2

New Line.l(r:p1ulv1006-udm2278) Units=km Length=0.0164132 bus1=udm2278.1.2 bus2=p1ulv1006.1.2 switch=n enabled=y phases=2 Linecode=1P_OH_AL_2/0_Rucina_0_416_0_2_2

New Line.l(r:p1ulv5788-udm2278) Units=km Length=0.0428152 bus1=udm2278.1.2 bus2=p1ulv5788.1.2 switch=n enabled=y phases=2 Linecode=1P_OH_AL_4/0_Zuzara_0_416_0_2_2

New Line.l(r:udm2278-udt558lv) Units=km Length=0.015526200000000002 bus1=udt558lv.1.2 bus2=udm2278.1.2 switch=n enabled=y phases=2 Linecode=1P_OH_AL_2/0_Rucina_0_416_0_2_2

New Line.l(r:p1ulv39775-udm2280) Units=km Length=0.0184599 bus1=udm2280.1.2 bus2=p1ulv39775.1.2 switch=n enabled=y phases=2 Linecode=1P_OH_AL_2/0_Rucina_0_416_0_2_2

New Line.l(r:p1ulv49879-udm2280) Units=km Length=0.0184892 bus1=udm2280.1.2 bus2=p1ulv49879.1.2 switch=n enabled=y phases=2 Linecode=1P_OH_AL_2/0_Rucina_0_416_0_2_2

New Line.l(r:p1ulv53810-udm2280) Units=km Length=0.017019700000000002 bus1=udm2280.1.2 bus2=p1ulv53810.1.2 switch=n enabled=y phases=2 Linecode=1P_OH_AL_2/0_Rucina_0_416_0_2_2

New Line.l(r:p1ulv60965-udm2280) Units=km Length=0.0179177 bus1=udm2280.1.2 bus2=p1ulv60965.1.2 switch=n enabled=y phases=2 Linecode=1P_OH_AL_2/0_Rucina_0_416_0_2_2

New Line.l(r:udm2280-udt558lv) Units=km Length=0.015515800000000001 bus1=udt558lv.1.2 bus2=udm2280.1.2 switch=n enabled=y phases=2 Linecode=1P_OH_AL_2/0_Rucina_0_416_0_2_2

New Line.l(r:p1ulv1008-udm2293) Units=km Length=0.0157708 bus1=udm2293.1.2 bus2=p1ulv1008.1.2 switch=n enabled=y phases=2 Linecode=1P_OH_AL_2/0_Rucina_0_416_0_2_2

New Line.l(r:p1ulv52866-udm2293) Units=km Length=0.0129584 bus1=udm2293.1.2 bus2=p1ulv52866.1.2 switch=n enabled=y phases=2 Linecode=1P_OH_AL_2/0_Rucina_0_416_0_2_2

New Line.l(r:udm2293-udt560lv) Units=km Length=0.0133986 bus1=udt560lv.1.2 bus2=udm2293.1.2 switch=n enabled=y phases=2 Linecode=1P_OH_AL_2/0_Rucina_0_416_0_2_2

New Line.l(r:p1ulv39902-udm2294) Units=km Length=0.01744 bus1=udm2294.1.2 bus2=p1ulv39902.1.2 switch=n enabled=y phases=2 Linecode=1P_OH_AL_2/0_Rucina_0_416_0_2_2

New Line.l(r:udm2294-udt560lv) Units=km Length=0.0382651 bus1=udt560lv.1.2 bus2=udm2294.1.2 switch=n enabled=y phases=2 Linecode=1P_OH_AL_4/0_Zuzara_0_416_0_2_2

New Line.l(r:p1ulv51725-udt564lv) Units=km Length=0.0194647 bus1=udt564lv.1.2 bus2=p1ulv51725.1.2 switch=n enabled=y phases=2 Linecode=1P_UG_AL_1/0_Brenau_0_416_0_2_2

New Line.l(r:p1ulv1012-udm2316) Units=km Length=0.0160357 bus1=udm2316.1.2 bus2=p1ulv1012.1.2 switch=n enabled=y phases=2 Linecode=1P_OH_AL_2/0_Rucina_0_416_0_2_2

New Line.l(r:udm2316-udt564lv) Units=km Length=0.0150369 bus1=udt564lv.1.2 bus2=udm2316.1.2 switch=n enabled=y phases=2 Linecode=1P_OH_AL_2/0_Rucina_0_416_0_2_2

New Line.l(r:p1ulv52508-udm2318) Units=km Length=0.013311200000000002 bus1=udm2318.1.2 bus2=p1ulv52508.1.2 switch=n enabled=y phases=2 Linecode=1P_UG_AL_1/0_Brenau_0_416_0_2_2

New Line.l(r:udm2318-udt564lv) Units=km Length=0.0245466 bus1=udt564lv.1.2 bus2=udm2318.1.2 switch=n enabled=y phases=2 Linecode=1P_UG_AL_1/0_Brenau_0_416_0_2_2

New Line.l(r:p1ulv3220-udt1471lv) Units=km Length=0.0162884 bus1=udt1471lv.1.2 bus2=p1ulv3220.1.2 switch=n enabled=y phases=2 Linecode=1P_UG_AL_1/0_Brenau_0_416_0_2_2

New Line.l(r:p1ulv53432-udm5977) Units=km Length=0.0184117 bus1=udm5977.1.2 bus2=p1ulv53432.1.2 switch=n enabled=y phases=2 Linecode=1P_UG_AL_1/0_Brenau_0_416_0_2_2

New Line.l(r:udm5977-udt1471lv) Units=km Length=0.0288816 bus1=udt1471lv.1.2 bus2=udm5977.1.2 switch=n enabled=y phases=2 Linecode=1P_UG_AL_1/0_Brenau_0_416_0_2_2

New Line.l(r:p1ulv59626-udm5978) Units=km Length=0.0167167 bus1=udm5978.1.2 bus2=p1ulv59626.1.2 switch=n enabled=y phases=2 Linecode=1P_UG_AL_1/0_Brenau_0_416_0_2_2

New Line.l(r:udm5978-udt1471lv) Units=km Length=0.0718066 bus1=udt1471lv.1.2 bus2=udm5978.1.2 switch=n enabled=y phases=2 Linecode=1P_UG_AL_1/0_Brenau_0_416_0_2_2

New Line.l(r:p1ulv3227-udt1472lv) Units=km Length=0.0200495 bus1=udt1472lv.1.2 bus2=p1ulv3227.1.2 switch=n enabled=y phases=2 Linecode=1P_OH_AL_2/0_Rucina_0_416_0_2_2

New Line.l(r:p1ulv3221-udm5979) Units=km Length=0.0203219 bus1=udm5979.1.2 bus2=p1ulv3221.1.2 switch=n enabled=y phases=2 Linecode=1P_OH_AL_2/0_Rucina_0_416_0_2_2

New Line.l(r:udm5979-udt1472lv) Units=km Length=0.0282594 bus1=udt1472lv.1.2 bus2=udm5979.1.2 switch=n enabled=y phases=2 Linecode=1P_OH_AL_4/0_Zuzara_0_416_0_2_2

New Line.l(r:p1ulv49583-udm5981) Units=km Length=0.0196913 bus1=udm5981.1.2 bus2=p1ulv49583.1.2 switch=n enabled=y phases=2 Linecode=1P_OH_AL_2/0_Rucina_0_416_0_2_2

New Line.l(r:udm5981-udt1472lv) Units=km Length=0.0714043 bus1=udt1472lv.1.2 bus2=udm5981.1.2 switch=n enabled=y phases=2 Linecode=1P_OH_AL_4/0_Zuzara_0_416_0_2_2

New Line.l(r:p1ulv3224-udt1475lv) Units=km Length=0.0177758 bus1=udt1475lv.1.2 bus2=p1ulv3224.1.2 switch=n enabled=y phases=2 Linecode=1P_OH_AL_2/0_Rucina_0_416_0_2_2

New Line.l(r:p1ulv49960-udt1475lv) Units=km Length=0.0155038 bus1=udt1475lv.1.2 bus2=p1ulv49960.1.2 switch=n enabled=y phases=2 Linecode=1P_OH_AL_2/0_Rucina_0_416_0_2_2

New Line.l(r:p1ulv52299-udt1475lv) Units=km Length=0.019060000000000004 bus1=udt1475lv.1.2 bus2=p1ulv52299.1.2 switch=n enabled=y phases=2 Linecode=1P_OH_AL_2/0_Rucina_0_416_0_2_2

New Line.l(r:p1ulv3231-udm5993) Units=km Length=0.0145379 bus1=udm5993.1.2 bus2=p1ulv3231.1.2 switch=n enabled=y phases=2 Linecode=1P_OH_AL_2/0_Rucina_0_416_0_2_2

New Line.l(r:udm5993-udt1475lv) Units=km Length=0.0568186 bus1=udt1475lv.1.2 bus2=udm5993.1.2 switch=n enabled=y phases=2 Linecode=1P_OH_AL_4/0_Zuzara_0_416_0_2_2

New Line.l(r:p1ulv45149-udm5994) Units=km Length=0.018000000000000002 bus1=udm5994.1.2 bus2=p1ulv45149.1.2 switch=n enabled=y phases=2 Linecode=1P_OH_AL_2/0_Rucina_0_416_0_2_2

New Line.l(r:p1ulv58578-udm5994) Units=km Length=0.0176942 bus1=udm5994.1.2 bus2=p1ulv58578.1.2 switch=n enabled=y phases=2 Linecode=1P_OH_AL_2/0_Rucina_0_416_0_2_2

New Line.l(r:udm5994-udt1475lv) Units=km Length=0.0324062 bus1=udt1475lv.1.2 bus2=udm5994.1.2 switch=n enabled=y phases=2 Linecode=1P_OH_AL_4/0_Zuzara_0_416_0_2_2

New Line.l(r:p1ulv3225-udt1476lv) Units=km Length=0.0153864 bus1=udt1476lv.1.2 bus2=p1ulv3225.1.2 switch=n enabled=y phases=2 Linecode=1P_OH_AL_2/0_Rucina_0_416_0_2_2

New Line.l(r:p1ulv3229-udm5999) Units=km Length=0.016463 bus1=udm5999.1.2 bus2=p1ulv3229.1.2 switch=n enabled=y phases=2 Linecode=1P_UG_AL_1/0_Brenau_0_416_0_2_2

New Line.l(r:udm5999-udt1476lv) Units=km Length=0.0589915 bus1=udt1476lv.1.2 bus2=udm5999.1.2 switch=n enabled=y phases=2 Linecode=1P_OH_AL_4/0_Zuzara_0_416_0_2_2

New Line.l(r:p1ulv52873-udm6000) Units=km Length=0.0186635 bus1=udm6000.1.2 bus2=p1ulv52873.1.2 switch=n enabled=y phases=2 Linecode=1P_OH_AL_2/0_Rucina_0_416_0_2_2

New Line.l(r:udm6000-udt1476lv) Units=km Length=0.019295 bus1=udt1476lv.1.2 bus2=udm6000.1.2 switch=n enabled=y phases=2 Linecode=1P_OH_AL_2/0_Rucina_0_416_0_2_2

New Line.l(r:p1ulv3232-udt1477lv) Units=km Length=0.0190809 bus1=udt1477lv.1.2 bus2=p1ulv3232.1.2 switch=n enabled=y phases=2 Linecode=1P_OH_AL_2/0_Rucina_0_416_0_2_2

New Line.l(r:p1ulv3247-udt1477lv) Units=km Length=0.0175838 bus1=udt1477lv.1.2 bus2=p1ulv3247.1.2 switch=n enabled=y phases=2 Linecode=1P_OH_AL_2/0_Rucina_0_416_0_2_2

New Line.l(r:p1ulv3226-udm6001) Units=km Length=0.015623 bus1=udm6001.1.2 bus2=p1ulv3226.1.2 switch=n enabled=y phases=2 Linecode=1P_OH_AL_2/0_Rucina_0_416_0_2_2

New Line.l(r:udm6001-udt1477lv) Units=km Length=0.0166981 bus1=udt1477lv.1.2 bus2=udm6001.1.2 switch=n enabled=y phases=2 Linecode=1P_OH_AL_2/0_Rucina_0_416_0_2_2

New Line.l(r:p1ulv43501-udt1480lv) Units=km Length=0.0306377 bus1=udt1480lv.1.2 bus2=p1ulv43501.1.2 switch=n enabled=y phases=2 Linecode=1P_OH_AL_4/0_Zuzara_0_416_0_2_2

New Line.l(r:p1ulv50028-udt1480lv) Units=km Length=0.0314174 bus1=udt1480lv.1.2 bus2=p1ulv50028.1.2 switch=n enabled=y phases=2 Linecode=1P_OH_AL_4/0_Zuzara_0_416_0_2_2

New Line.l(r:p1ulv57756-udt1480lv) Units=km Length=0.0317367 bus1=udt1480lv.1.2 bus2=p1ulv57756.1.2 switch=n enabled=y phases=2 Linecode=1P_OH_AL_4/0_Zuzara_0_416_0_2_2

New Line.l(r:p1ulv58054-udt1480lv) Units=km Length=0.0293604 bus1=udt1480lv.1.2 bus2=p1ulv58054.1.2 switch=n enabled=y phases=2 Linecode=1P_OH_AL_4/0_Zuzara_0_416_0_2_2

New Line.l(r:p1ulv3233-udm6016) Units=km Length=0.0190188 bus1=udm6016.1.2 bus2=p1ulv3233.1.2 switch=n enabled=y phases=2 Linecode=1P_OH_AL_2/0_Rucina_0_416_0_2_2

New Line.l(r:p1ulv55289-udm6016) Units=km Length=0.0183215 bus1=udm6016.1.2 bus2=p1ulv55289.1.2 switch=n enabled=y phases=2 Linecode=1P_OH_AL_2/0_Rucina_0_416_0_2_2

New Line.l(r:udm6016-udt1480lv) Units=km Length=0.0313041 bus1=udt1480lv.1.2 bus2=udm6016.1.2 switch=n enabled=y phases=2 Linecode=1P_OH_AL_4/0_Zuzara_0_416_0_2_2

New Line.l(r:p1ulv52181-udt1486lv) Units=km Length=0.022450000000000005 bus1=udt1486lv.1.2 bus2=p1ulv52181.1.2 switch=n enabled=y phases=2 Linecode=1P_OH_AL_2/0_Rucina_0_416_0_2_2

New Line.l(r:p1ulv3239-udm6040) Units=km Length=0.0231938 bus1=udm6040.1.2 bus2=p1ulv3239.1.2 switch=n enabled=y phases=2 Linecode=1P_OH_AL_2/0_Rucina_0_416_0_2_2

New Line.l(r:udm6040-udt1486lv) Units=km Length=0.01728 bus1=udt1486lv.1.2 bus2=udm6040.1.2 switch=n enabled=y phases=2 Linecode=1P_OH_AL_2/0_Rucina_0_416_0_2_2

New Line.l(r:p1ulv54678-udt1489lv) Units=km Length=0.0202954 bus1=udt1489lv.1.2 bus2=p1ulv54678.1.2 switch=n enabled=y phases=2 Linecode=1P_OH_AL_2/0_Rucina_0_416_0_2_2

New Line.l(r:p1ulv3244-udm6053) Units=km Length=0.022445300000000005 bus1=udm6053.1.2 bus2=p1ulv3244.1.2 switch=n enabled=y phases=2 Linecode=1P_OH_AL_2/0_Rucina_0_416_0_2_2

New Line.l(r:udm6053-udt1489lv) Units=km Length=0.0460558 bus1=udt1489lv.1.2 bus2=udm6053.1.2 switch=n enabled=y phases=2 Linecode=1P_OH_AL_4/0_Zuzara_0_416_0_2_2

New Line.l(r:p1ulv48541-udm6054) Units=km Length=0.020494000000000002 bus1=udm6054.1.2 bus2=p1ulv48541.1.2 switch=n enabled=y phases=2 Linecode=1P_OH_AL_2/0_Rucina_0_416_0_2_2

New Line.l(r:udm6054-udt1489lv) Units=km Length=0.060403 bus1=udt1489lv.1.2 bus2=udm6054.1.2 switch=n enabled=y phases=2 Linecode=1P_OH_AL_4/0_Zuzara_0_416_0_2_2

New Line.l(r:p1ulv39616-udt2326lv) Units=km Length=0.017475 bus1=udt2326lv.1.2 bus2=p1ulv39616.1.2 switch=n enabled=y phases=2 Linecode=1P_OH_AL_2/0_Rucina_0_416_0_2_2

New Line.l(r:p1ulv5053-udm9304) Units=km Length=0.0188883 bus1=udm9304.1.2 bus2=p1ulv5053.1.2 switch=n enabled=y phases=2 Linecode=1P_OH_AL_2/0_Rucina_0_416_0_2_2

New Line.l(r:p1ulv57014-udm9304) Units=km Length=0.0208344 bus1=udm9304.1.2 bus2=p1ulv57014.1.2 switch=n enabled=y phases=2 Linecode=1P_OH_AL_2/0_Rucina_0_416_0_2_2

New Line.l(r:p1ulv5047-udm9303) Units=km Length=0.0247745 bus1=udm9303.1.2 bus2=p1ulv5047.1.2 switch=n enabled=y phases=2 Linecode=1P_OH_AL_2/0_Rucina_0_416_0_2_2

New Line.l(r:udm9303-udm9304) Units=km Length=0.019310000000000004 bus1=udm9304.1.2 bus2=udm9303.1.2 switch=n enabled=y phases=2 Linecode=1P_OH_AL_2/0_Rucina_0_416_0_2_2

New Line.l(r:udm9304-udt2326lv) Units=km Length=0.0141519 bus1=udt2326lv.1.2 bus2=udm9304.1.2 switch=n enabled=y phases=2 Linecode=1P_OH_AL_2/0_Rucina_0_416_0_2_2

New Line.l(r:p1ulv41346-udm9306) Units=km Length=0.0212355 bus1=udm9306.1.2 bus2=p1ulv41346.1.2 switch=n enabled=y phases=2 Linecode=1P_OH_AL_2/0_Rucina_0_416_0_2_2

New Line.l(r:p1ulv45212-udm9307) Units=km Length=0.0190286 bus1=udm9307.1.2 bus2=p1ulv45212.1.2 switch=n enabled=y phases=2 Linecode=1P_OH_AL_2/0_Rucina_0_416_0_2_2

New Line.l(r:p1ulv56604-udm9307) Units=km Length=0.0191278 bus1=udm9307.1.2 bus2=p1ulv56604.1.2 switch=n enabled=y phases=2 Linecode=1P_OH_AL_2/0_Rucina_0_416_0_2_2

New Line.l(r:udm9306-udm9307) Units=km Length=0.0120227 bus1=udm9306.1.2 bus2=udm9307.1.2 switch=n enabled=y phases=2 Linecode=1P_OH_AL_2/0_Rucina_0_416_0_2_2

New Line.l(r:udm9306-udt2326lv) Units=km Length=0.0137681 bus1=udt2326lv.1.2 bus2=udm9306.1.2 switch=n enabled=y phases=2 Linecode=1P_OH_AL_2/0_Rucina_0_416_0_2_2

New Line.l(r:p1ulv5048-udt2327lv) Units=km Length=0.0205643 bus1=udt2327lv.1.2 bus2=p1ulv5048.1.2 switch=n enabled=y phases=2 Linecode=1P_OH_AL_2/0_Rucina_0_416_0_2_2

New Line.l(r:p1ulv48613-udm9311) Units=km Length=0.0163542 bus1=udm9311.1.2 bus2=p1ulv48613.1.2 switch=n enabled=y phases=2 Linecode=1P_OH_AL_2/0_Rucina_0_416_0_2_2

New Line.l(r:udm9311-udt2327lv) Units=km Length=0.014078900000000002 bus1=udt2327lv.1.2 bus2=udm9311.1.2 switch=n enabled=y phases=2 Linecode=1P_OH_AL_2/0_Rucina_0_416_0_2_2

New Line.l(r:p1ulv57110-udm9312) Units=km Length=0.0169132 bus1=udm9312.1.2 bus2=p1ulv57110.1.2 switch=n enabled=y phases=2 Linecode=1P_OH_AL_2/0_Rucina_0_416_0_2_2

New Line.l(r:udm9312-udt2327lv) Units=km Length=0.010645300000000002 bus1=udt2327lv.1.2 bus2=udm9312.1.2 switch=n enabled=y phases=2 Linecode=1P_OH_AL_2/0_Rucina_0_416_0_2_2

New Line.l(r:p1ulv5049-udm9313) Units=km Length=0.0425621 bus1=udm9313.1.2 bus2=p1ulv5049.1.2 switch=n enabled=y phases=2 Linecode=1P_OH_AL_4/0_Zuzara_0_416_0_2_2

New Line.l(r:p1ulv59110-udm9313) Units=km Length=0.025132 bus1=udm9313.1.2 bus2=p1ulv59110.1.2 switch=n enabled=y phases=2 Linecode=1P_OH_AL_2/0_Rucina_0_416_0_2_2

New Line.l(r:udm9313-udt2328lv) Units=km Length=0.018344 bus1=udt2328lv.1.2 bus2=udm9313.1.2 switch=n enabled=y phases=2 Linecode=1P_OH_AL_2/0_Rucina_0_416_0_2_2

New Line.l(r:p1ulv5051-udm9314) Units=km Length=0.0359821 bus1=udm9314.1.2 bus2=p1ulv5051.1.2 switch=n enabled=y phases=2 Linecode=1P_OH_AL_4/0_Zuzara_0_416_0_2_2

New Line.l(r:udm9314-udt2328lv) Units=km Length=0.018353 bus1=udt2328lv.1.2 bus2=udm9314.1.2 switch=n enabled=y phases=2 Linecode=1P_OH_AL_2/0_Rucina_0_416_0_2_2

New Line.l(r:p1ulv46673-udt2329lv) Units=km Length=0.029237 bus1=udt2329lv.1.2 bus2=p1ulv46673.1.2 switch=n enabled=y phases=2 Linecode=1P_OH_AL_4/0_Zuzara_0_416_0_2_2

New Line.l(r:p1ulv5050-udm9316) Units=km Length=0.0285961 bus1=udm9316.1.2 bus2=p1ulv5050.1.2 switch=n enabled=y phases=2 Linecode=1P_OH_AL_4/0_Zuzara_0_416_0_2_2

New Line.l(r:udm9316-udt2329lv) Units=km Length=0.0197127 bus1=udt2329lv.1.2 bus2=udm9316.1.2 switch=n enabled=y phases=2 Linecode=1P_OH_AL_2/0_Rucina_0_416_0_2_2

New Line.l(r:p1ulv5055-udm9317) Units=km Length=0.0288363 bus1=udm9317.1.2 bus2=p1ulv5055.1.2 switch=n enabled=y phases=2 Linecode=1P_OH_AL_4/0_Zuzara_0_416_0_2_2

New Line.l(r:udm9317-udt2329lv) Units=km Length=0.0197054 bus1=udt2329lv.1.2 bus2=udm9317.1.2 switch=n enabled=y phases=2 Linecode=1P_OH_AL_2/0_Rucina_0_416_0_2_2

New Line.l(r:p1ulv44771-udm9320) Units=km Length=0.0152909 bus1=udm9320.1.2 bus2=p1ulv44771.1.2 switch=n enabled=y phases=2 Linecode=1P_OH_AL_2/0_Rucina_0_416_0_2_2

New Line.l(r:p1ulv5052-udm9319) Units=km Length=0.0449149 bus1=udm9319.1.2 bus2=p1ulv5052.1.2 switch=n enabled=y phases=2 Linecode=1P_OH_AL_4/0_Zuzara_0_416_0_2_2

New Line.l(r:p1ulv59957-udm9319) Units=km Length=0.0108672 bus1=udm9319.1.2 bus2=p1ulv59957.1.2 switch=n enabled=y phases=2 Linecode=1P_OH_AL_2/0_Rucina_0_416_0_2_2

New Line.l(r:udm9319-udm9320) Units=km Length=0.018921 bus1=udm9320.1.2 bus2=udm9319.1.2 switch=n enabled=y phases=2 Linecode=1P_OH_AL_2/0_Rucina_0_416_0_2_2

New Line.l(r:udm9320-udt2330lv) Units=km Length=0.03727690000000001 bus1=udt2330lv.1.2 bus2=udm9320.1.2 switch=n enabled=y phases=2 Linecode=1P_OH_AL_4/0_Zuzara_0_416_0_2_2

New Line.l(r:p1ulv60624-udm9322) Units=km Length=0.0221595 bus1=udm9322.1.2 bus2=p1ulv60624.1.2 switch=n enabled=y phases=2 Linecode=1P_OH_AL_2/0_Rucina_0_416_0_2_2

New Line.l(r:udm9322-udt2330lv) Units=km Length=0.018344 bus1=udt2330lv.1.2 bus2=udm9322.1.2 switch=n enabled=y phases=2 Linecode=1P_OH_AL_2/0_Rucina_0_416_0_2_2

New Line.l(r:p1ulv56705-udt2331lv) Units=km Length=0.0217213 bus1=udt2331lv.1.2 bus2=p1ulv56705.1.2 switch=n enabled=y phases=2 Linecode=1P_OH_AL_2/0_Rucina_0_416_0_2_2

New Line.l(r:p1ulv5054-udm9323) Units=km Length=0.037408 bus1=udm9323.1.2 bus2=p1ulv5054.1.2 switch=n enabled=y phases=2 Linecode=1P_OH_AL_4/0_Zuzara_0_416_0_2_2

New Line.l(r:udm9323-udt2331lv) Units=km Length=0.0162662 bus1=udt2331lv.1.2 bus2=udm9323.1.2 switch=n enabled=y phases=2 Linecode=1P_OH_AL_2/0_Rucina_0_416_0_2_2

New Line.l(r:p1ulv48160-udm9324) Units=km Length=0.0163702 bus1=udm9324.1.2 bus2=p1ulv48160.1.2 switch=n enabled=y phases=2 Linecode=1P_OH_AL_2/0_Rucina_0_416_0_2_2

New Line.l(r:udm9324-udt2331lv) Units=km Length=0.0346101 bus1=udt2331lv.1.2 bus2=udm9324.1.2 switch=n enabled=y phases=2 Linecode=1P_OH_AL_4/0_Zuzara_0_416_0_2_2

New Line.l(r:p1ulv5056-udt2332lv) Units=km Length=0.032582700000000006 bus1=udt2332lv.1.2 bus2=p1ulv5056.1.2 switch=n enabled=y phases=2 Linecode=1P_OH_AL_4/0_Zuzara_0_416_0_2_2

New Line.l(r:p1ulv53662-udm9327) Units=km Length=0.0232955 bus1=udm9327.1.2 bus2=p1ulv53662.1.2 switch=n enabled=y phases=2 Linecode=1P_OH_AL_2/0_Rucina_0_416_0_2_2

New Line.l(r:udm9327-udt2332lv) Units=km Length=0.018344 bus1=udt2332lv.1.2 bus2=udm9327.1.2 switch=n enabled=y phases=2 Linecode=1P_OH_AL_2/0_Rucina_0_416_0_2_2

New Line.l(r:p1ulv5057-udt2333lv) Units=km Length=0.021020600000000004 bus1=udt2333lv.1.2 bus2=p1ulv5057.1.2 switch=n enabled=y phases=2 Linecode=1P_OH_AL_2/0_Rucina_0_416_0_2_2

New Line.l(r:p1ulv52462-udt2333lv) Units=km Length=0.0175749 bus1=udt2333lv.1.2 bus2=p1ulv52462.1.2 switch=n enabled=y phases=2 Linecode=1P_OH_AL_2/0_Rucina_0_416_0_2_2

New Line.l(r:p1ulv55734-udt2334lv) Units=km Length=0.0207563 bus1=udt2334lv.1.2 bus2=p1ulv55734.1.2 switch=n enabled=y phases=2 Linecode=1P_OH_AL_2/0_Rucina_0_416_0_2_2

New Line.l(r:p1ulv60396-udt2334lv) Units=km Length=0.0160681 bus1=udt2334lv.1.2 bus2=p1ulv60396.1.2 switch=n enabled=y phases=2 Linecode=1P_OH_AL_2/0_Rucina_0_416_0_2_2

New Line.l(r:p1ulv43756-udm9331) Units=km Length=0.018303200000000002 bus1=udm9331.1.2 bus2=p1ulv43756.1.2 switch=n enabled=y phases=2 Linecode=1P_OH_AL_2/0_Rucina_0_416_0_2_2

New Line.l(r:p1ulv5058-udm9330) Units=km Length=0.0217749 bus1=udm9330.1.2 bus2=p1ulv5058.1.2 switch=n enabled=y phases=2 Linecode=1P_OH_AL_2/0_Rucina_0_416_0_2_2

New Line.l(r:p1ulv53065-udm9330) Units=km Length=0.0178657 bus1=udm9330.1.2 bus2=p1ulv53065.1.2 switch=n enabled=y phases=2 Linecode=1P_OH_AL_2/0_Rucina_0_416_0_2_2
