New Line.l(r:p1ulv3539-udm6624) Units=km Length=0.006517050000000001 bus1=udm6624.1.2 bus2=p1ulv3539.1.2 switch=n enabled=y phases=2 Linecode=1P_UG_AL_1/0_Brenau_0_416_0_2_2

New Line.l(r:p1ulv44161-udm6630) Units=km Length=0.0070516 bus1=udm6630.1.2 bus2=p1ulv44161.1.2 switch=n enabled=y phases=2 Linecode=1P_UG_AL_1/0_Brenau_0_416_0_2_2

New Line.l(r:p1ulv42749-udm6628) Units=km Length=0.0156829 bus1=udm6628.1.2 bus2=p1ulv42749.1.2 switch=n enabled=y phases=2 Linecode=1P_OH_AL_2/0_Rucina_0_416_0_2_2

New Line.l(r:udm6628-udm6630) Units=km Length=0.05464 bus1=udm6630.1.2 bus2=udm6628.1.2 switch=n enabled=y phases=2 Linecode=1P_OH_AL_4/0_Zuzara_0_416_0_2_2

New Line.l(r:udm6624-udm6630) Units=km Length=0.00965734 bus1=udm6624.1.2 bus2=udm6630.1.2 switch=n enabled=y phases=2 Linecode=1P_UG_AL_2/0_Converse_0_416_0_2_2

New Line.l(r:udm6624-udt1660lv) Units=km Length=0.028983700000000005 bus1=udt1660lv.1.2 bus2=udm6624.1.2 switch=n enabled=y phases=2 Linecode=1P_UG_AL_4/0_Sweetbriar_0_416_0_2_2

New Line.l(r:p1ulv35563-udm6626) Units=km Length=0.00979331 bus1=udm6626.1.2 bus2=p1ulv35563.1.2 switch=n enabled=y phases=2 Linecode=1P_UG_AL_1/0_Brenau_0_416_0_2_2

New Line.l(r:p1ulv36608-udm6627) Units=km Length=0.010753300000000002 bus1=udm6627.1.2 bus2=p1ulv36608.1.2 switch=n enabled=y phases=2 Linecode=1P_UG_AL_1/0_Brenau_0_416_0_2_2

New Line.l(r:p1ulv27976-udm6625) Units=km Length=0.0113797 bus1=udm6625.1.2 bus2=p1ulv27976.1.2 switch=n enabled=y phases=2 Linecode=1P_UG_AL_1/0_Brenau_0_416_0_2_2

New Line.l(r:p1ulv42953-udm6629) Units=km Length=0.0114932 bus1=udm6629.1.2 bus2=p1ulv42953.1.2 switch=n enabled=y phases=2 Linecode=1P_UG_AL_1/0_Brenau_0_416_0_2_2

New Line.l(r:udm6625-udm6629) Units=km Length=0.0193245 bus1=udm6625.1.2 bus2=udm6629.1.2 switch=n enabled=y phases=2 Linecode=1P_UG_AL_1/0_Brenau_0_416_0_2_2

New Line.l(r:udm6625-udm6627) Units=km Length=0.0193264 bus1=udm6627.1.2 bus2=udm6625.1.2 switch=n enabled=y phases=2 Linecode=1P_UG_AL_1/0_Brenau_0_416_0_2_2

New Line.l(r:udm6626-udm6627) Units=km Length=0.00965734 bus1=udm6626.1.2 bus2=udm6627.1.2 switch=n enabled=y phases=2 Linecode=1P_UG_AL_1/0_Brenau_0_416_0_2_2

New Line.l(r:udm6626-udt1660lv) Units=km Length=0.00966717 bus1=udt1660lv.1.2 bus2=udm6626.1.2 switch=n enabled=y phases=2 Linecode=1P_UG_AL_4/0_Sweetbriar_0_416_0_2_2

New Line.l(r:p1ulv35344-udt1661lv) Units=km Length=0.0162074 bus1=udt1661lv.1.2 bus2=p1ulv35344.1.2 switch=n enabled=y phases=2 Linecode=1P_OH_AL_2/0_Rucina_0_416_0_2_2

New Line.l(r:p1ulv3540-udm6631) Units=km Length=0.0204697 bus1=udm6631.1.2 bus2=p1ulv3540.1.2 switch=n enabled=y phases=2 Linecode=1P_OH_AL_2/0_Rucina_0_416_0_2_2

New Line.l(r:p1ulv32118-udm6631) Units=km Length=0.0161336 bus1=udm6631.1.2 bus2=p1ulv32118.1.2 switch=n enabled=y phases=2 Linecode=1P_OH_AL_2/0_Rucina_0_416_0_2_2

New Line.l(r:udm6631-udt1661lv) Units=km Length=0.0179102 bus1=udt1661lv.1.2 bus2=udm6631.1.2 switch=n enabled=y phases=2 Linecode=1P_OH_AL_2/0_Rucina_0_416_0_2_2

New Line.l(r:p1ulv38569-udt1662lv) Units=km Length=0.0124508 bus1=udt1662lv.1.2 bus2=p1ulv38569.1.2 switch=n enabled=y phases=2 Linecode=1P_OH_AL_2/0_Rucina_0_416_0_2_2

New Line.l(r:p1ulv3541-udm6634) Units=km Length=0.0150486 bus1=udm6634.1.2 bus2=p1ulv3541.1.2 switch=n enabled=y phases=2 Linecode=1P_OH_AL_2/0_Rucina_0_416_0_2_2

New Line.l(r:udm6634-udt1662lv) Units=km Length=0.01941 bus1=udt1662lv.1.2 bus2=udm6634.1.2 switch=n enabled=y phases=2 Linecode=1P_OH_AL_2/0_Rucina_0_416_0_2_2

New Line.l(r:p1ulv42759-udt1663lv) Units=km Length=0.0161204 bus1=udt1663lv.1.2 bus2=p1ulv42759.1.2 switch=n enabled=y phases=2 Linecode=1P_UG_AL_1/0_Brenau_0_416_0_2_2

New Line.l(r:p1ulv3542-udm6636) Units=km Length=0.0175884 bus1=udm6636.1.2 bus2=p1ulv3542.1.2 switch=n enabled=y phases=2 Linecode=1P_UG_AL_1/0_Brenau_0_416_0_2_2

New Line.l(r:udm6636-udt1663lv) Units=km Length=0.0189328 bus1=udt1663lv.1.2 bus2=udm6636.1.2 switch=n enabled=y phases=2 Linecode=1P_UG_AL_1/0_Brenau_0_416_0_2_2

New Line.l(r:p1ulv47447-udm6638) Units=km Length=0.0221682 bus1=udm6638.1.2 bus2=p1ulv47447.1.2 switch=n enabled=y phases=2 Linecode=1P_UG_AL_1/0_Brenau_0_416_0_2_2

New Line.l(r:udm6638-udt1663lv) Units=km Length=0.0169664 bus1=udt1663lv.1.2 bus2=udm6638.1.2 switch=n enabled=y phases=2 Linecode=1P_UG_AL_1/0_Brenau_0_416_0_2_2

New Line.l(r:p1ulv3546-udt1664lv) Units=km Length=0.0233237 bus1=udt1664lv.1.2 bus2=p1ulv3546.1.2 switch=n enabled=y phases=2 Linecode=1P_UG_AL_1/0_Brenau_0_416_0_2_2

New Line.l(r:p1ulv40580-udt1664lv) Units=km Length=0.0136411 bus1=udt1664lv.1.2 bus2=p1ulv40580.1.2 switch=n enabled=y phases=2 Linecode=1P_UG_AL_1/0_Brenau_0_416_0_2_2

New Line.l(r:p1ulv3543-udm6639) Units=km Length=0.0215258 bus1=udm6639.1.2 bus2=p1ulv3543.1.2 switch=n enabled=y phases=2 Linecode=1P_UG_AL_1/0_Brenau_0_416_0_2_2

New Line.l(r:udm6639-udt1664lv) Units=km Length=0.0457365 bus1=udt1664lv.1.2 bus2=udm6639.1.2 switch=n enabled=y phases=2 Linecode=1P_UG_AL_1/0_Brenau_0_416_0_2_2

New Line.l(r:p1ulv3544-udm6642) Units=km Length=0.0146025 bus1=udm6642.1.2 bus2=p1ulv3544.1.2 switch=n enabled=y phases=2 Linecode=1P_UG_AL_1/0_Brenau_0_416_0_2_2

New Line.l(r:udm6642-udt1665lv) Units=km Length=0.0189229 bus1=udt1665lv.1.2 bus2=udm6642.1.2 switch=n enabled=y phases=2 Linecode=1P_UG_AL_1/0_Brenau_0_416_0_2_2

New Line.l(r:p1ulv26394-udm6643) Units=km Length=0.0266921 bus1=udm6643.1.2 bus2=p1ulv26394.1.2 switch=n enabled=y phases=2 Linecode=1P_UG_AL_1/0_Brenau_0_416_0_2_2

New Line.l(r:p1ulv42378-udm6644) Units=km Length=0.0260865 bus1=udm6644.1.2 bus2=p1ulv42378.1.2 switch=n enabled=y phases=2 Linecode=1P_UG_AL_1/0_Brenau_0_416_0_2_2

New Line.l(r:udm6643-udm6644) Units=km Length=0.00946146 bus1=udm6643.1.2 bus2=udm6644.1.2 switch=n enabled=y phases=2 Linecode=1P_UG_AL_1/0_Brenau_0_416_0_2_2

New Line.l(r:udm6643-udt1665lv) Units=km Length=0.00947131 bus1=udt1665lv.1.2 bus2=udm6643.1.2 switch=n enabled=y phases=2 Linecode=1P_UG_AL_1/0_Brenau_0_416_0_2_2

New Line.l(r:p1ulv45979-udt1666lv) Units=km Length=0.0119 bus1=udt1666lv.1.2 bus2=p1ulv45979.1.2 switch=n enabled=y phases=2 Linecode=1P_OH_AL_2/0_Rucina_0_416_0_2_2

New Line.l(r:p1ulv45586-udm6647) Units=km Length=0.014564800000000001 bus1=udm6647.1.2 bus2=p1ulv45586.1.2 switch=n enabled=y phases=2 Linecode=1P_OH_AL_2/0_Rucina_0_416_0_2_2

New Line.l(r:p1ulv33788-udm6646) Units=km Length=0.01798 bus1=udm6646.1.2 bus2=p1ulv33788.1.2 switch=n enabled=y phases=2 Linecode=1P_OH_AL_2/0_Rucina_0_416_0_2_2

New Line.l(r:udm6646-udm6647) Units=km Length=0.019354 bus1=udm6647.1.2 bus2=udm6646.1.2 switch=n enabled=y phases=2 Linecode=1P_OH_AL_2/0_Rucina_0_416_0_2_2

New Line.l(r:udm6647-udt1666lv) Units=km Length=0.0193423 bus1=udt1666lv.1.2 bus2=udm6647.1.2 switch=n enabled=y phases=2 Linecode=1P_OH_AL_2/0_Rucina_0_416_0_2_2

New Line.l(r:p1ulv50438-udm6649) Units=km Length=0.0150918 bus1=udm6649.1.2 bus2=p1ulv50438.1.2 switch=n enabled=y phases=2 Linecode=1P_OH_AL_2/0_Rucina_0_416_0_2_2

New Line.l(r:p1ulv3545-udm6645) Units=km Length=0.0190263 bus1=udm6645.1.2 bus2=p1ulv3545.1.2 switch=n enabled=y phases=2 Linecode=1P_OH_AL_2/0_Rucina_0_416_0_2_2

New Line.l(r:udm6645-udm6649) Units=km Length=0.0476103 bus1=udm6649.1.2 bus2=udm6645.1.2 switch=n enabled=y phases=2 Linecode=1P_OH_AL_4/0_Zuzara_0_416_0_2_2

New Line.l(r:udm6649-udt1666lv) Units=km Length=0.0193521 bus1=udt1666lv.1.2 bus2=udm6649.1.2 switch=n enabled=y phases=2 Linecode=1P_OH_AL_2/0_Rucina_0_416_0_2_2

New Line.l(r:p1ulv28572-udt1667lv) Units=km Length=0.0109814 bus1=udt1667lv.1.2 bus2=p1ulv28572.1.2 switch=n enabled=y phases=2 Linecode=1P_OH_AL_2/0_Rucina_0_416_0_2_2

New Line.l(r:p1ulv3547-udm6650) Units=km Length=0.009876200000000002 bus1=udm6650.1.2 bus2=p1ulv3547.1.2 switch=n enabled=y phases=2 Linecode=1P_OH_AL_2/0_Rucina_0_416_0_2_2

New Line.l(r:udm6650-udt1667lv) Units=km Length=0.0447025 bus1=udt1667lv.1.2 bus2=udm6650.1.2 switch=n enabled=y phases=2 Linecode=1P_OH_AL_4/0_Zuzara_0_416_0_2_2

New Line.l(r:p1ulv28943-udm6652) Units=km Length=0.0142395 bus1=udm6652.1.2 bus2=p1ulv28943.1.2 switch=n enabled=y phases=2 Linecode=1P_OH_AL_2/0_Rucina_0_416_0_2_2

New Line.l(r:p1ulv42167-udm6652) Units=km Length=0.0162978 bus1=udm6652.1.2 bus2=p1ulv42167.1.2 switch=n enabled=y phases=2 Linecode=1P_OH_AL_2/0_Rucina_0_416_0_2_2

New Line.l(r:p1ulv45801-udm6654) Units=km Length=0.0115694 bus1=udm6654.1.2 bus2=p1ulv45801.1.2 switch=n enabled=y phases=2 Linecode=1P_OH_AL_2/0_Rucina_0_416_0_2_2

New Line.l(r:udm6652-udm6654) Units=km Length=0.016895600000000004 bus1=udm6652.1.2 bus2=udm6654.1.2 switch=n enabled=y phases=2 Linecode=1P_OH_AL_2/0_Rucina_0_416_0_2_2

New Line.l(r:udm6652-udt1667lv) Units=km Length=0.0173004 bus1=udt1667lv.1.2 bus2=udm6652.1.2 switch=n enabled=y phases=2 Linecode=1P_OH_AL_2/0_Rucina_0_416_0_2_2

New Line.l(r:p1ulv3548-udt1668lv) Units=km Length=0.0124694 bus1=udt1668lv.1.2 bus2=p1ulv3548.1.2 switch=n enabled=y phases=2 Linecode=1P_OH_AL_2/0_Rucina_0_416_0_2_2

New Line.l(r:p1ulv29480-udt1668lv) Units=km Length=0.0121953 bus1=udt1668lv.1.2 bus2=p1ulv29480.1.2 switch=n enabled=y phases=2 Linecode=1P_OH_AL_2/0_Rucina_0_416_0_2_2

New Line.l(r:p1ulv39386-udm6657) Units=km Length=0.013626600000000003 bus1=udm6657.1.2 bus2=p1ulv39386.1.2 switch=n enabled=y phases=2 Linecode=1P_OH_AL_2/0_Rucina_0_416_0_2_2

New Line.l(r:udm6657-udt1668lv) Units=km Length=0.0199313 bus1=udt1668lv.1.2 bus2=udm6657.1.2 switch=n enabled=y phases=2 Linecode=1P_OH_AL_2/0_Rucina_0_416_0_2_2

New Line.l(r:p1ulv3549-udt1669lv) Units=km Length=0.012471000000000001 bus1=udt1669lv.1.2 bus2=p1ulv3549.1.2 switch=n enabled=y phases=2 Linecode=1P_OH_AL_2/0_Rucina_0_416_0_2_2

New Line.l(r:p1ulv30216-udt1669lv) Units=km Length=0.013775 bus1=udt1669lv.1.2 bus2=p1ulv30216.1.2 switch=n enabled=y phases=2 Linecode=1P_OH_AL_2/0_Rucina_0_416_0_2_2

New Line.l(r:p1ulv33431-udm6660) Units=km Length=0.014195 bus1=udm6660.1.2 bus2=p1ulv33431.1.2 switch=n enabled=y phases=2 Linecode=1P_OH_AL_2/0_Rucina_0_416_0_2_2

New Line.l(r:udm6660-udt1669lv) Units=km Length=0.017226 bus1=udt1669lv.1.2 bus2=udm6660.1.2 switch=n enabled=y phases=2 Linecode=1P_OH_AL_2/0_Rucina_0_416_0_2_2

New Line.l(r:p1ulv3551-udm6662) Units=km Length=0.0521295 bus1=udm6662.1.2 bus2=p1ulv3551.1.2 switch=n enabled=y phases=2 Linecode=1P_UG_AL_1/0_Brenau_0_416_0_2_2

New Line.l(r:udm6662-udt1671lv) Units=km Length=0.0276205 bus1=udt1671lv.1.2 bus2=udm6662.1.2 switch=n enabled=y phases=2 Linecode=1P_UG_AL_1/0_Brenau_0_416_0_2_2

New Line.l(r:p1ulv24150-udm6663) Units=km Length=0.0220904 bus1=udm6663.1.2 bus2=p1ulv24150.1.2 switch=n enabled=y phases=2 Linecode=1P_UG_AL_4/0_Sweetbriar_0_416_0_2_2

New Line.l(r:p1ulv26184-udm6664) Units=km Length=0.04481670000000001 bus1=udm6664.1.2 bus2=p1ulv26184.1.2 switch=n enabled=y phases=2 Linecode=1P_UG_AL_1/0_Brenau_0_416_0_2_2

New Line.l(r:udm6663-udm6664) Units=km Length=0.018418 bus1=udm6663.1.2 bus2=udm6664.1.2 switch=n enabled=y phases=2 Linecode=1P_UG_AL_1/0_Brenau_0_416_0_2_2

New Line.l(r:udm6663-udt1671lv) Units=km Length=0.009204040000000002 bus1=udt1671lv.1.2 bus2=udm6663.1.2 switch=n enabled=y phases=2 Linecode=1P_UG_AL_4/0_Sweetbriar_0_416_0_2_2

New Line.l(r:p1ulv24147-udt1672lv) Units=km Length=0.0148962 bus1=udt1672lv.1.2 bus2=p1ulv24147.1.2 switch=n enabled=y phases=2 Linecode=1P_OH_AL_2/0_Rucina_0_416_0_2_2

New Line.l(r:p1ulv3552-udm6665) Units=km Length=0.0110302 bus1=udm6665.1.2 bus2=p1ulv3552.1.2 switch=n enabled=y phases=2 Linecode=1P_OH_AL_2/0_Rucina_0_416_0_2_2

New Line.l(r:p1ulv24144-udm6665) Units=km Length=0.0188162 bus1=udm6665.1.2 bus2=p1ulv24144.1.2 switch=n enabled=y phases=2 Linecode=1P_OH_AL_2/0_Rucina_0_416_0_2_2

New Line.l(r:p1ulv24145-udm6665) Units=km Length=0.0155291 bus1=udm6665.1.2 bus2=p1ulv24145.1.2 switch=n enabled=y phases=2 Linecode=1P_OH_AL_2/0_Rucina_0_416_0_2_2

New Line.l(r:udm6665-udt1672lv) Units=km Length=0.011531 bus1=udt1672lv.1.2 bus2=udm6665.1.2 switch=n enabled=y phases=2 Linecode=1P_OH_AL_2/0_Rucina_0_416_0_2_2

New Line.l(r:p1ulv38882-udm6669) Units=km Length=0.013581100000000002 bus1=udm6669.1.2 bus2=p1ulv38882.1.2 switch=n enabled=y phases=2 Linecode=1P_OH_AL_2/0_Rucina_0_416_0_2_2

New Line.l(r:p1ulv42506-udm6670) Units=km Length=0.023012 bus1=udm6670.1.2 bus2=p1ulv42506.1.2 switch=n enabled=y phases=2 Linecode=1P_OH_AL_2/0_Rucina_0_416_0_2_2

New Line.l(r:udm6669-udm6670) Units=km Length=0.0128775 bus1=udm6669.1.2 bus2=udm6670.1.2 switch=n enabled=y phases=2 Linecode=1P_OH_AL_2/0_Rucina_0_416_0_2_2

New Line.l(r:udm6669-udt1672lv) Units=km Length=0.011521000000000002 bus1=udt1672lv.1.2 bus2=udm6669.1.2 switch=n enabled=y phases=2 Linecode=1P_OH_AL_2/0_Rucina_0_416_0_2_2

New Line.l(r:p1ulv34836-udt2739lv) Units=km Length=0.0167379 bus1=udt2739lv.1.2 bus2=p1ulv34836.1.2 switch=n enabled=y phases=2 Linecode=1P_UG_AL_1/0_Brenau_0_416_0_2_2

New Line.l(r:p1ulv31633-udm10901) Units=km Length=0.0155486 bus1=udm10901.1.2 bus2=p1ulv31633.1.2 switch=n enabled=y phases=2 Linecode=1P_UG_AL_1/0_Brenau_0_416_0_2_2

New Line.l(r:p1ulv44015-udm10901) Units=km Length=0.0182175 bus1=udm10901.1.2 bus2=p1ulv44015.1.2 switch=n enabled=y phases=2 Linecode=1P_UG_AL_1/0_Brenau_0_416_0_2_2

New Line.l(r:p1ulv49094-udm10901) Units=km Length=0.0211225 bus1=udm10901.1.2 bus2=p1ulv49094.1.2 switch=n enabled=y phases=2 Linecode=1P_UG_AL_1/0_Brenau_0_416_0_2_2

New Line.l(r:p1ulv33410-udm10902) Units=km Length=0.016684 bus1=udm10902.1.2 bus2=p1ulv33410.1.2 switch=n enabled=y phases=2 Linecode=1P_UG_AL_1/0_Brenau_0_416_0_2_2

New Line.l(r:p1ulv40768-udm10906) Units=km Length=0.0180176 bus1=udm10906.1.2 bus2=p1ulv40768.1.2 switch=n enabled=y phases=2 Linecode=1P_UG_AL_1/0_Brenau_0_416_0_2_2

New Line.l(r:udm10902-udm10906) Units=km Length=0.0183005 bus1=udm10902.1.2 bus2=udm10906.1.2 switch=n enabled=y phases=2 Linecode=1P_UG_AL_1/0_Brenau_0_416_0_2_2

New Line.l(r:udm10901-udm10902) Units=km Length=0.0183008 bus1=udm10901.1.2 bus2=udm10902.1.2 switch=n enabled=y phases=2 Linecode=1P_UG_AL_1/0_Brenau_0_416_0_2_2

New Line.l(r:udm10901-udt2739lv) Units=km Length=0.00914526 bus1=udt2739lv.1.2 bus2=udm10901.1.2 switch=n enabled=y phases=2 Linecode=1P_UG_AL_4/0_Sweetbriar_0_416_0_2_2

New Line.l(r:p1ulv38985-udm10905) Units=km Length=0.0236853 bus1=udm10905.1.2 bus2=p1ulv38985.1.2 switch=n enabled=y phases=2 Linecode=1P_UG_AL_1/0_Brenau_0_416_0_2_2

New Line.l(r:p1ulv5958-udm10898) Units=km Length=0.0234667 bus1=udm10898.1.2 bus2=p1ulv5958.1.2 switch=n enabled=y phases=2 Linecode=1P_UG_AL_1/0_Brenau_0_416_0_2_2

New Line.l(r:p1ulv10522-udm10898) Units=km Length=0.0189282 bus1=udm10898.1.2 bus2=p1ulv10522.1.2 switch=n enabled=y phases=2 Linecode=1P_UG_AL_1/0_Brenau_0_416_0_2_2

New Line.l(r:p1ulv26581-udm10898) Units=km Length=0.0219046 bus1=udm10898.1.2 bus2=p1ulv26581.1.2 switch=n enabled=y phases=2 Linecode=1P_UG_AL_1/0_Brenau_0_416_0_2_2

New Line.l(r:p1ulv38837-udm10898) Units=km Length=0.0255188 bus1=udm10898.1.2 bus2=p1ulv38837.1.2 switch=n enabled=y phases=2 Linecode=1P_UG_AL_1/0_Brenau_0_416_0_2_2

New Line.l(r:udm10898-udm10905) Units=km Length=0.00914526 bus1=udm10905.1.2 bus2=udm10898.1.2 switch=n enabled=y phases=2 Linecode=1P_UG_AL_4/0_Sweetbriar_0_416_0_2_2

New Line.l(r:udm10905-udt2739lv) Units=km Length=0.00915559 bus1=udt2739lv.1.2 bus2=udm10905.1.2 switch=n enabled=y phases=2 Linecode=1P_UG_AL_4/0_Sweetbriar_0_416_0_2_2

New Line.l(r:p1ulv5967-udm10939) Units=km Length=0.015111800000000002 bus1=udm10939.1.2 bus2=p1ulv5967.1.2 switch=n enabled=y phases=2 Linecode=1P_OH_AL_2/0_Rucina_0_416_0_2_2

New Line.l(r:p1ulv38098-udm10941) Units=km Length=0.0165491 bus1=udm10941.1.2 bus2=p1ulv38098.1.2 switch=n enabled=y phases=2 Linecode=1P_OH_AL_2/0_Rucina_0_416_0_2_2

New Line.l(r:udm10939-udm10941) Units=km Length=0.0373703 bus1=udm10939.1.2 bus2=udm10941.1.2 switch=n enabled=y phases=2 Linecode=1P_OH_AL_4/0_Zuzara_0_416_0_2_2

New Line.l(r:udm10939-udt2745lv) Units=km Length=0.0105993 bus1=udt2745lv.1.2 bus2=udm10939.1.2 switch=n enabled=y phases=2 Linecode=1P_OH_AL_2/0_Rucina_0_416_0_2_2

New Line.l(r:p1ulv35252-udm10940) Units=km Length=0.0139987 bus1=udm10940.1.2 bus2=p1ulv35252.1.2 switch=n enabled=y phases=2 Linecode=1P_OH_AL_2/0_Rucina_0_416_0_2_2

New Line.l(r:p1ulv40617-udm10942) Units=km Length=0.0125748 bus1=udm10942.1.2 bus2=p1ulv40617.1.2 switch=n enabled=y phases=2 Linecode=1P_UG_AL_1/0_Brenau_0_416_0_2_2

New Line.l(r:udm10940-udm10942) Units=km Length=0.025776600000000004 bus1=udm10940.1.2 bus2=udm10942.1.2 switch=n enabled=y phases=2 Linecode=1P_OH_AL_2/0_Rucina_0_416_0_2_2

New Line.l(r:udm10940-udt2745lv) Units=km Length=0.0106028 bus1=udt2745lv.1.2 bus2=udm10940.1.2 switch=n enabled=y phases=2 Linecode=1P_OH_AL_2/0_Rucina_0_416_0_2_2

New Line.l(r:p1ulv8418-udt3075lv) Units=km Length=0.0116059 bus1=udt3075lv.1.2 bus2=p1ulv8418.1.2 switch=n enabled=y phases=2 Linecode=1P_OH_AL_2/0_Rucina_0_416_0_2_2

New Line.l(r:p1ulv37854-udt3075lv) Units=km Length=0.0139012 bus1=udt3075lv.1.2 bus2=p1ulv37854.1.2 switch=n enabled=y phases=2 Linecode=1P_OH_AL_2/0_Rucina_0_416_0_2_2

New Line.l(r:p1ulv6824-udm12190) Units=km Length=0.0099315 bus1=udm12190.1.2 bus2=p1ulv6824.1.2 switch=n enabled=y phases=2 Linecode=1P_OH_AL_2/0_Rucina_0_416_0_2_2

New Line.l(r:p1ulv37451-udm12190) Units=km Length=0.0111063 bus1=udm12190.1.2 bus2=p1ulv37451.1.2 switch=n enabled=y phases=2 Linecode=1P_OH_AL_2/0_Rucina_0_416_0_2_2

New Line.l(r:udm12190-udt3075lv) Units=km Length=0.017697 bus1=udt3075lv.1.2 bus2=udm12190.1.2 switch=n enabled=y phases=2 Linecode=1P_OH_AL_2/0_Rucina_0_416_0_2_2

New Line.l(r:p1ulv35216-udm12192) Units=km Length=0.0118939 bus1=udm12192.1.2 bus2=p1ulv35216.1.2 switch=n enabled=y phases=2 Linecode=1P_OH_AL_2/0_Rucina_0_416_0_2_2

New Line.l(r:p1ulv38210-udm12195) Units=km Length=0.0118301 bus1=udm12195.1.2 bus2=p1ulv38210.1.2 switch=n enabled=y phases=2 Linecode=1P_OH_AL_2/0_Rucina_0_416_0_2_2

New Line.l(r:p1ulv48868-udm12196) Units=km Length=0.0136302 bus1=udm12196.1.2 bus2=p1ulv48868.1.2 switch=n enabled=y phases=2 Linecode=1P_OH_AL_2/0_Rucina_0_416_0_2_2

New Line.l(r:udm12195-udm12196) Units=km Length=0.0161158 bus1=udm12195.1.2 bus2=udm12196.1.2 switch=n enabled=y phases=2 Linecode=1P_OH_AL_2/0_Rucina_0_416_0_2_2

New Line.l(r:udm12192-udm12195) Units=km Length=0.016104700000000003 bus1=udm12192.1.2 bus2=udm12195.1.2 switch=n enabled=y phases=2 Linecode=1P_OH_AL_2/0_Rucina_0_416_0_2_2

New Line.l(r:udm12192-udt3075lv) Units=km Length=0.017697 bus1=udt3075lv.1.2 bus2=udm12192.1.2 switch=n enabled=y phases=2 Linecode=1P_OH_AL_2/0_Rucina_0_416_0_2_2

New Line.l(r:p1ulv6825-udt3076lv) Units=km Length=0.00969751 bus1=udt3076lv.1.2 bus2=p1ulv6825.1.2 switch=n enabled=y phases=2 Linecode=1P_UG_AL_2/0_Converse_0_416_0_2_2

New Line.l(r:p1ulv28900-udm12199) Units=km Length=0.011061600000000001 bus1=udm12199.1.2 bus2=p1ulv28900.1.2 switch=n enabled=y phases=2 Linecode=1P_UG_AL_1/0_Brenau_0_416_0_2_2

New Line.l(r:p1ulv26713-udm12198) Units=km Length=0.00800446 bus1=udm12198.1.2 bus2=p1ulv26713.1.2 switch=n enabled=y phases=2 Linecode=1P_UG_AL_1/0_Brenau_0_416_0_2_2

New Line.l(r:udm12198-udm12199) Units=km Length=0.0571436 bus1=udm12199.1.2 bus2=udm12198.1.2 switch=n enabled=y phases=2 Linecode=1P_UG_AL_1/0_Brenau_0_416_0_2_2

New Line.l(r:udm12199-udt3076lv) Units=km Length=0.00911206 bus1=udt3076lv.1.2 bus2=udm12199.1.2 switch=n enabled=y phases=2 Linecode=1P_UG_AL_1/0_Brenau_0_416_0_2_2

New Line.l(r:p1ulv42911-udm12200) Units=km Length=0.0142803 bus1=udm12200.1.2 bus2=p1ulv42911.1.2 switch=n enabled=y phases=2 Linecode=1P_UG_AL_1/0_Brenau_0_416_0_2_2

New Line.l(r:udm12200-udt3076lv) Units=km Length=0.0182014 bus1=udt3076lv.1.2 bus2=udm12200.1.2 switch=n enabled=y phases=2 Linecode=1P_UG_AL_1/0_Brenau_0_416_0_2_2

New Line.l(r:p1ulv30022-udt3077lv) Units=km Length=0.013724 bus1=udt3077lv.1.2 bus2=p1ulv30022.1.2 switch=n enabled=y phases=2 Linecode=1P_OH_AL_2/0_Rucina_0_416_0_2_2

New Line.l(r:p1ulv32166-udt3077lv) Units=km Length=0.00931608 bus1=udt3077lv.1.2 bus2=p1ulv32166.1.2 switch=n enabled=y phases=2 Linecode=1P_OH_AL_2/0_Rucina_0_416_0_2_2

New Line.l(r:p1ulv38814-udm12206) Units=km Length=0.0109814 bus1=udm12206.1.2 bus2=p1ulv38814.1.2 switch=n enabled=y phases=2 Linecode=1P_OH_AL_2/0_Rucina_0_416_0_2_2

New Line.l(r:p1ulv6826-udm12201) Units=km Length=0.009278500000000002 bus1=udm12201.1.2 bus2=p1ulv6826.1.2 switch=n enabled=y phases=2 Linecode=1P_OH_AL_2/0_Rucina_0_416_0_2_2

New Line.l(r:p1ulv30390-udm12203) Units=km Length=0.00486687 bus1=udm12203.1.2 bus2=p1ulv30390.1.2 switch=n enabled=y phases=2 Linecode=1P_OH_AL_2/0_Rucina_0_416_0_2_2

New Line.l(r:udm12201-udm12203) Units=km Length=0.0194012 bus1=udm12201.1.2 bus2=udm12203.1.2 switch=n enabled=y phases=2 Linecode=1P_OH_AL_2/0_Rucina_0_416_0_2_2

New Line.l(r:udm12201-udm12206) Units=km Length=0.0388125 bus1=udm12206.1.2 bus2=udm12201.1.2 switch=n enabled=y phases=2 Linecode=1P_OH_AL_4/0_Zuzara_0_416_0_2_2

New Line.l(r:p1ulv37199-udm12205) Units=km Length=0.00867475 bus1=udm12205.1.2 bus2=p1ulv37199.1.2 switch=n enabled=y phases=2 Linecode=1P_OH_AL_2/0_Rucina_0_416_0_2_2

New Line.l(r:udm12205-udm12206) Units=km Length=0.0194112 bus1=udm12206.1.2 bus2=udm12205.1.2 switch=n enabled=y phases=2 Linecode=1P_OH_AL_2/0_Rucina_0_416_0_2_2

New Line.l(r:udm12206-udt3077lv) Units=km Length=0.0194012 bus1=udt3077lv.1.2 bus2=udm12206.1.2 switch=n enabled=y phases=2 Linecode=1P_OH_AL_2/0_Rucina_0_416_0_2_2

New Line.l(r:p1ulv50520-udt3078lv) Units=km Length=0.0112124 bus1=udt3078lv.1.2 bus2=p1ulv50520.1.2 switch=n enabled=y phases=2 Linecode=1P_OH_AL_2/0_Rucina_0_416_0_2_2

New Line.l(r:p1ulv6827-udm12207) Units=km Length=0.0129962 bus1=udm12207.1.2 bus2=p1ulv6827.1.2 switch=n enabled=y phases=2 Linecode=1P_OH_AL_2/0_Rucina_0_416_0_2_2

New Line.l(r:udm12207-udt3078lv) Units=km Length=0.0176735 bus1=udt3078lv.1.2 bus2=udm12207.1.2 switch=n enabled=y phases=2 Linecode=1P_OH_AL_2/0_Rucina_0_416_0_2_2

New Line.l(r:p1ulv6828-udm12209) Units=km Length=0.0990623 bus1=udm12209.1.2 bus2=p1ulv6828.1.2 switch=n enabled=y phases=2 Linecode=1P_UG_AL_4/0_Sweetbriar_0_416_0_2_2

New Line.l(r:p1ulv6829-udm12209) Units=km Length=0.07359170000000001 bus1=udm12209.1.2 bus2=p1ulv6829.1.2 switch=n enabled=y phases=2 Linecode=1P_UG_AL_4/0_Sweetbriar_0_416_0_2_2

New Line.l(r:udm12209-udt3079lv) Units=km Length=0.00912647 bus1=udt3079lv.1.2 bus2=udm12209.1.2 switch=n enabled=y phases=2 Linecode=1P_UG_AL_4/0_Sweetbriar_0_416_0_2_2

New Line.l(r:p1ulv47644-udm12211) Units=km Length=0.0527032 bus1=udm12211.1.2 bus2=p1ulv47644.1.2 switch=n enabled=y phases=2 Linecode=1P_UG_AL_1/0_Brenau_0_416_0_2_2

New Line.l(r:udm12211-udt3079lv) Units=km Length=0.0274007 bus1=udt3079lv.1.2 bus2=udm12211.1.2 switch=n enabled=y phases=2 Linecode=1P_UG_AL_1/0_Brenau_0_416_0_2_2

New Line.l(r:p1ulv43964-udt3082lv) Units=km Length=0.0169901 bus1=udt3082lv.1.2 bus2=p1ulv43964.1.2 switch=n enabled=y phases=2 Linecode=1P_OH_AL_2/0_Rucina_0_416_0_2_2

New Line.l(r:p1ulv47783-udt3082lv) Units=km Length=0.0264975 bus1=udt3082lv.1.2 bus2=p1ulv47783.1.2 switch=n enabled=y phases=2 Linecode=1P_OH_AL_2/0_Rucina_0_416_0_2_2

New Line.l(r:p1ulv6832-udm12215) Units=km Length=0.0363918 bus1=udm12215.1.2 bus2=p1ulv6832.1.2 switch=n enabled=y phases=2 Linecode=1P_OH_AL_4/0_Zuzara_0_416_0_2_2

New Line.l(r:p1ulv34653-udm12215) Units=km Length=0.0612816 bus1=udm12215.1.2 bus2=p1ulv34653.1.2 switch=n enabled=y phases=2 Linecode=1P_OH_AL_4/0_Zuzara_0_416_0_2_2

New Line.l(r:p1ulv39085-udm12215) Units=km Length=0.0224565 bus1=udm12215.1.2 bus2=p1ulv39085.1.2 switch=n enabled=y phases=2 Linecode=1P_OH_AL_2/0_Rucina_0_416_0_2_2

New Line.l(r:udm12215-udt3082lv) Units=km Length=0.0196604 bus1=udt3082lv.1.2 bus2=udm12215.1.2 switch=n enabled=y phases=2 Linecode=1P_OH_AL_2/0_Rucina_0_416_0_2_2

New Line.l(r:p1ulv8403-udm12221) Units=km Length=0.013824 bus1=udm12221.1.2 bus2=p1ulv8403.1.2 switch=n enabled=y phases=2 Linecode=1P_UG_AL_1/0_Brenau_0_416_0_2_2

New Line.l(r:p1ulv46204-udm12221) Units=km Length=0.0241533 bus1=udm12221.1.2 bus2=p1ulv46204.1.2 switch=n enabled=y phases=2 Linecode=1P_UG_AL_4/0_Sweetbriar_0_416_0_2_2

New Line.l(r:udm12221-udt3083lv) Units=km Length=0.02873 bus1=udt3083lv.1.2 bus2=udm12221.1.2 switch=n enabled=y phases=2 Linecode=1P_UG_AL_4/0_Sweetbriar_0_416_0_2_2

New Line.l(r:p1ulv38963-udm12222) Units=km Length=0.0135497 bus1=udm12222.1.2 bus2=p1ulv38963.1.2 switch=n enabled=y phases=2 Linecode=1P_UG_AL_1/0_Brenau_0_416_0_2_2

New Line.l(r:p1ulv6833-udm12220) Units=km Length=0.0133866 bus1=udm12220.1.2 bus2=p1ulv6833.1.2 switch=n enabled=y phases=2 Linecode=1P_UG_AL_1/0_Brenau_0_416_0_2_2

New Line.l(r:p1ulv47248-udm12224) Units=km Length=0.0123293 bus1=udm12224.1.2 bus2=p1ulv47248.1.2 switch=n enabled=y phases=2 Linecode=1P_UG_AL_1/0_Brenau_0_416_0_2_2

New Line.l(r:udm12220-udm12224) Units=km Length=0.00964919 bus1=udm12220.1.2 bus2=udm12224.1.2 switch=n enabled=y phases=2 Linecode=1P_UG_AL_1/0_Brenau_0_416_0_2_2

New Line.l(r:udm12220-udm12222) Units=km Length=0.00964919 bus1=udm12222.1.2 bus2=udm12220.1.2 switch=n enabled=y phases=2 Linecode=1P_UG_AL_1/0_Brenau_0_416_0_2_2

New Line.l(r:udm12222-udt3083lv) Units=km Length=0.0192884 bus1=udt3083lv.1.2 bus2=udm12222.1.2 switch=n enabled=y phases=2 Linecode=1P_UG_AL_2/0_Converse_0_416_0_2_2

New Line.l(r:p1ulv8262-udt3752lv) Units=km Length=0.014567200000000002 bus1=udt3752lv.1.2 bus2=p1ulv8262.1.2 switch=n enabled=y phases=2 Linecode=1P_UG_AL_1/0_Brenau_0_416_0_2_2

New Line.l(r:p1ulv8263-udm14596) Units=km Length=0.0176641 bus1=udm14596.1.2 bus2=p1ulv8263.1.2 switch=n enabled=y phases=2 Linecode=1P_UG_AL_1/0_Brenau_0_416_0_2_2

New Line.l(r:p1ulv8278-udm14596) Units=km Length=0.0159119 bus1=udm14596.1.2 bus2=p1ulv8278.1.2 switch=n enabled=y phases=2 Linecode=1P_UG_AL_1/0_Brenau_0_416_0_2_2

New Line.l(r:p1ulv27080-udm14599) Units=km Length=0.0139937 bus1=udm14599.1.2 bus2=p1ulv27080.1.2 switch=n enabled=y phases=2 Linecode=1P_UG_AL_1/0_Brenau_0_416_0_2_2

New Line.l(r:udm14596-udm14599) Units=km Length=0.009847690000000001 bus1=udm14596.1.2 bus2=udm14599.1.2 switch=n enabled=y phases=2 Linecode=1P_UG_AL_1/0_Brenau_0_416_0_2_2

New Line.l(r:udm14596-udt3752lv) Units=km Length=0.009847690000000001 bus1=udt3752lv.1.2 bus2=udm14596.1.2 switch=n enabled=y phases=2 Linecode=1P_UG_AL_2/0_Converse_0_416_0_2_2

New Line.l(r:p1ulv29961-udm14600) Units=km Length=0.0165917 bus1=udm14600.1.2 bus2=p1ulv29961.1.2 switch=n enabled=y phases=2 Linecode=1P_UG_AL_1/0_Brenau_0_416_0_2_2

New Line.l(r:p1ulv8264-udm14597) Units=km Length=0.0145617 bus1=udm14597.1.2 bus2=p1ulv8264.1.2 switch=n enabled=y phases=2 Linecode=1P_UG_AL_1/0_Brenau_0_416_0_2_2

New Line.l(r:udm14597-udm14600) Units=km Length=0.009847690000000001 bus1=udm14600.1.2 bus2=udm14597.1.2 switch=n enabled=y phases=2 Linecode=1P_UG_AL_1/0_Brenau_0_416_0_2_2

New Line.l(r:udm14600-udt3752lv) Units=km Length=0.009847690000000001 bus1=udt3752lv.1.2 bus2=udm14600.1.2 switch=n enabled=y phases=2 Linecode=1P_UG_AL_1/0_Brenau_0_416_0_2_2

New Line.l(r:p1ulv8265-udt3753lv) Units=km Length=0.0151547 bus1=udt3753lv.1.2 bus2=p1ulv8265.1.2 switch=n enabled=y phases=2 Linecode=1P_UG_AL_1/0_Brenau_0_416_0_2_2

New Line.l(r:p1ulv8273-udt3753lv) Units=km Length=0.019261700000000003 bus1=udt3753lv.1.2 bus2=p1ulv8273.1.2 switch=n enabled=y phases=2 Linecode=1P_UG_AL_1/0_Brenau_0_416_0_2_2

New Line.l(r:p1ulv8266-udm14602) Units=km Length=0.0152428 bus1=udm14602.1.2 bus2=p1ulv8266.1.2 switch=n enabled=y phases=2 Linecode=1P_UG_AL_1/0_Brenau_0_416_0_2_2

New Line.l(r:udm14602-udt3753lv) Units=km Length=0.009847690000000001 bus1=udt3753lv.1.2 bus2=udm14602.1.2 switch=n enabled=y phases=2 Linecode=1P_UG_AL_1/0_Brenau_0_416_0_2_2

New Line.l(r:p1ulv42913-udt3754lv) Units=km Length=0.011077700000000001 bus1=udt3754lv.1.2 bus2=p1ulv42913.1.2 switch=n enabled=y phases=2 Linecode=1P_UG_AL_1/0_Brenau_0_416_0_2_2

New Line.l(r:p1ulv8272-udm14605) Units=km Length=0.0141702 bus1=udm14605.1.2 bus2=p1ulv8272.1.2 switch=n enabled=y phases=2 Linecode=1P_UG_AL_1/0_Brenau_0_416_0_2_2

New Line.l(r:p1ulv27726-udm14606) Units=km Length=0.0209902 bus1=udm14606.1.2 bus2=p1ulv27726.1.2 switch=n enabled=y phases=2 Linecode=1P_OH_AL_2/0_Rucina_0_416_0_2_2

New Line.l(r:udm14605-udm14606) Units=km Length=0.0536431 bus1=udm14605.1.2 bus2=udm14606.1.2 switch=n enabled=y phases=2 Linecode=1P_OH_AL_4/0_Zuzara_0_416_0_2_2

New Line.l(r:p1ulv38757-udm14607) Units=km Length=0.0175815 bus1=udm14607.1.2 bus2=p1ulv38757.1.2 switch=n enabled=y phases=2 Linecode=1P_OH_AL_2/0_Rucina_0_416_0_2_2

New Line.l(r:udm14605-udm14607) Units=km Length=0.05209280000000001 bus1=udm14605.1.2 bus2=udm14607.1.2 switch=n enabled=y phases=2 Linecode=1P_OH_AL_4/0_Zuzara_0_416_0_2_2

New Line.l(r:udm14605-udt3754lv) Units=km Length=0.00948844 bus1=udt3754lv.1.2 bus2=udm14605.1.2 switch=n enabled=y phases=2 Linecode=1P_UG_AL_2/0_Converse_0_416_0_2_2

New Line.l(r:p1ulv42703-udm14608) Units=km Length=0.0280177 bus1=udm14608.1.2 bus2=p1ulv42703.1.2 switch=n enabled=y phases=2 Linecode=1P_UG_AL_1/0_Brenau_0_416_0_2_2

New Line.l(r:p1ulv8268-udm14604) Units=km Length=0.014316600000000002 bus1=udm14604.1.2 bus2=p1ulv8268.1.2 switch=n enabled=y phases=2 Linecode=1P_UG_AL_1/0_Brenau_0_416_0_2_2

New Line.l(r:p1ulv47582-udm14604) Units=km Length=0.0175322 bus1=udm14604.1.2 bus2=p1ulv47582.1.2 switch=n enabled=y phases=2 Linecode=1P_UG_AL_1/0_Brenau_0_416_0_2_2

New Line.l(r:udm14604-udm14608) Units=km Length=0.00948844 bus1=udm14608.1.2 bus2=udm14604.1.2 switch=n enabled=y phases=2 Linecode=1P_UG_AL_1/0_Brenau_0_416_0_2_2

New Line.l(r:udm14608-udt3754lv) Units=km Length=0.009488020000000002 bus1=udt3754lv.1.2 bus2=udm14608.1.2 switch=n enabled=y phases=2 Linecode=1P_UG_AL_1/0_Brenau_0_416_0_2_2

New Line.l(r:p1ulv8287-udt3755lv) Units=km Length=0.018303 bus1=udt3755lv.1.2 bus2=p1ulv8287.1.2 switch=n enabled=y phases=2 Linecode=1P_UG_AL_1/0_Brenau_0_416_0_2_2
