New Line.l(r:p1ulv284-udm707) Units=km Length=0.053456 bus1=udm707.1.2 bus2=p1ulv284.1.2 switch=n enabled=y phases=2 Linecode=1P_UG_AL_2/0_Converse_0_416_0_2_2

New Line.l(r:p1ulv285-udm708) Units=km Length=0.0636234 bus1=udm708.1.2 bus2=p1ulv285.1.2 switch=n enabled=y phases=2 Linecode=1P_UG_AL_2/0_Converse_0_416_0_2_2

New Line.l(r:udm707-udm708) Units=km Length=0.00953016 bus1=udm707.1.2 bus2=udm708.1.2 switch=n enabled=y phases=2 Linecode=1P_UG_AL_2/0_Converse_0_416_0_2_2

New Line.l(r:udm707-udt195lv) Units=km Length=0.0190577 bus1=udt195lv.1.2 bus2=udm707.1.2 switch=n enabled=y phases=2 Linecode=1P_UG_AL_4/0_Sweetbriar_0_416_0_2_2

New Line.l(r:p1ulv286-udm709) Units=km Length=0.0451431 bus1=udm709.1.2 bus2=p1ulv286.1.2 switch=n enabled=y phases=2 Linecode=1P_UG_AL_1/0_Brenau_0_416_0_2_2

New Line.l(r:p1ulv287-udm709) Units=km Length=0.0396684 bus1=udm709.1.2 bus2=p1ulv287.1.2 switch=n enabled=y phases=2 Linecode=1P_UG_AL_1/0_Brenau_0_416_0_2_2

New Line.l(r:p1ulv288-udm711) Units=km Length=0.0358531 bus1=udm711.1.2 bus2=p1ulv288.1.2 switch=n enabled=y phases=2 Linecode=1P_UG_AL_1/0_Brenau_0_416_0_2_2

New Line.l(r:udm709-udm711) Units=km Length=0.0089908 bus1=udm709.1.2 bus2=udm711.1.2 switch=n enabled=y phases=2 Linecode=1P_UG_AL_1/0_Brenau_0_416_0_2_2

New Line.l(r:udm709-udt195lv) Units=km Length=0.00953579 bus1=udt195lv.1.2 bus2=udm709.1.2 switch=n enabled=y phases=2 Linecode=1P_UG_AL_4/0_Sweetbriar_0_416_0_2_2

New Line.l(r:p1ulv290-udt196lv) Units=km Length=0.0214475 bus1=udt196lv.1.2 bus2=p1ulv290.1.2 switch=n enabled=y phases=2 Linecode=1P_UG_AL_1/0_Brenau_0_416_0_2_2

New Line.l(r:p1ulv289-udm712) Units=km Length=0.0285813 bus1=udm712.1.2 bus2=p1ulv289.1.2 switch=n enabled=y phases=2 Linecode=1P_UG_AL_1/0_Brenau_0_416_0_2_2

New Line.l(r:udm712-udt196lv) Units=km Length=0.00899691 bus1=udt196lv.1.2 bus2=udm712.1.2 switch=n enabled=y phases=2 Linecode=1P_UG_AL_1/0_Brenau_0_416_0_2_2

New Line.l(r:p1ulv291-udm714) Units=km Length=0.0148626 bus1=udm714.1.2 bus2=p1ulv291.1.2 switch=n enabled=y phases=2 Linecode=1P_UG_AL_1/0_Brenau_0_416_0_2_2

New Line.l(r:udm714-udt196lv) Units=km Length=0.0089908 bus1=udt196lv.1.2 bus2=udm714.1.2 switch=n enabled=y phases=2 Linecode=1P_UG_AL_1/0_Brenau_0_416_0_2_2

New Line.l(r:p1ulv2790-udt1296lv) Units=km Length=0.0188078 bus1=udt1296lv.1.2 bus2=p1ulv2790.1.2 switch=n enabled=y phases=2 Linecode=1P_UG_AL_1/0_Brenau_0_416_0_2_2

New Line.l(r:p1ulv29898-udt1296lv) Units=km Length=0.016571700000000005 bus1=udt1296lv.1.2 bus2=p1ulv29898.1.2 switch=n enabled=y phases=2 Linecode=1P_UG_AL_1/0_Brenau_0_416_0_2_2

New Line.l(r:p1ulv4627-udm5324) Units=km Length=0.012533 bus1=udm5324.1.2 bus2=p1ulv4627.1.2 switch=n enabled=y phases=2 Linecode=1P_UG_AL_1/0_Brenau_0_416_0_2_2

New Line.l(r:udm5324-udt1296lv) Units=km Length=0.00964685 bus1=udt1296lv.1.2 bus2=udm5324.1.2 switch=n enabled=y phases=2 Linecode=1P_UG_AL_1/0_Brenau_0_416_0_2_2

New Line.l(r:p1ulv2792-udm5327) Units=km Length=0.0166223 bus1=udm5327.1.2 bus2=p1ulv2792.1.2 switch=n enabled=y phases=2 Linecode=1P_UG_AL_1/0_Brenau_0_416_0_2_2

New Line.l(r:p1ulv40677-udm5327) Units=km Length=0.0140835 bus1=udm5327.1.2 bus2=p1ulv40677.1.2 switch=n enabled=y phases=2 Linecode=1P_UG_AL_1/0_Brenau_0_416_0_2_2

New Line.l(r:p1ulv4670-udm5331) Units=km Length=0.0153133 bus1=udm5331.1.2 bus2=p1ulv4670.1.2 switch=n enabled=y phases=2 Linecode=1P_UG_AL_1/0_Brenau_0_416_0_2_2

New Line.l(r:p1ulv4666-udm5330) Units=km Length=0.0197332 bus1=udm5330.1.2 bus2=p1ulv4666.1.2 switch=n enabled=y phases=2 Linecode=1P_UG_AL_1/0_Brenau_0_416_0_2_2

New Line.l(r:p1ulv14599-udm5330) Units=km Length=0.0412017 bus1=udm5330.1.2 bus2=p1ulv14599.1.2 switch=n enabled=y phases=2 Linecode=1P_UG_AL_1/0_Brenau_0_416_0_2_2

New Line.l(r:udm5330-udm5331) Units=km Length=0.0199599 bus1=udm5331.1.2 bus2=udm5330.1.2 switch=n enabled=y phases=2 Linecode=1P_UG_AL_1/0_Brenau_0_416_0_2_2

New Line.l(r:udm5327-udm5331) Units=km Length=0.048783400000000005 bus1=udm5327.1.2 bus2=udm5331.1.2 switch=n enabled=y phases=2 Linecode=1P_UG_AL_1/0_Brenau_0_416_0_2_2

New Line.l(r:udm5327-udt1297lv) Units=km Length=0.0096115 bus1=udt1297lv.1.2 bus2=udm5327.1.2 switch=n enabled=y phases=2 Linecode=1P_UG_AL_4/0_Sweetbriar_0_416_0_2_2

New Line.l(r:p1ulv4657-udm5329) Units=km Length=0.0151704 bus1=udm5329.1.2 bus2=p1ulv4657.1.2 switch=n enabled=y phases=2 Linecode=1P_UG_AL_1/0_Brenau_0_416_0_2_2

New Line.l(r:p1ulv2791-udm5326) Units=km Length=0.0143518 bus1=udm5326.1.2 bus2=p1ulv2791.1.2 switch=n enabled=y phases=2 Linecode=1P_UG_AL_1/0_Brenau_0_416_0_2_2

New Line.l(r:p1ulv2797-udm5328) Units=km Length=0.0150595 bus1=udm5328.1.2 bus2=p1ulv2797.1.2 switch=n enabled=y phases=2 Linecode=1P_UG_AL_1/0_Brenau_0_416_0_2_2

New Line.l(r:udm5326-udm5328) Units=km Length=0.0096115 bus1=udm5326.1.2 bus2=udm5328.1.2 switch=n enabled=y phases=2 Linecode=1P_UG_AL_1/0_Brenau_0_416_0_2_2

New Line.l(r:udm5326-udm5329) Units=km Length=0.0096115 bus1=udm5329.1.2 bus2=udm5326.1.2 switch=n enabled=y phases=2 Linecode=1P_UG_AL_1/0_Brenau_0_416_0_2_2

New Line.l(r:udm5329-udt1297lv) Units=km Length=0.0096115 bus1=udt1297lv.1.2 bus2=udm5329.1.2 switch=n enabled=y phases=2 Linecode=1P_UG_AL_2/0_Converse_0_416_0_2_2

New Line.l(r:p1ulv4635-udt1298lv) Units=km Length=0.009960950000000001 bus1=udt1298lv.1.2 bus2=p1ulv4635.1.2 switch=n enabled=y phases=2 Linecode=1P_UG_AL_1/0_Brenau_0_416_0_2_2

New Line.l(r:p1ulv2793-udm5334) Units=km Length=0.01149 bus1=udm5334.1.2 bus2=p1ulv2793.1.2 switch=n enabled=y phases=2 Linecode=1P_UG_AL_1/0_Brenau_0_416_0_2_2

New Line.l(r:p1ulv4655-udm5336) Units=km Length=0.0199761 bus1=udm5336.1.2 bus2=p1ulv4655.1.2 switch=n enabled=y phases=2 Linecode=1P_OH_AL_2/0_Rucina_0_416_0_2_2

New Line.l(r:udm5334-udm5336) Units=km Length=0.09278540000000002 bus1=udm5334.1.2 bus2=udm5336.1.2 switch=n enabled=y phases=2 Linecode=1P_OH_AL_4/0_Zuzara_0_416_0_2_2

New Line.l(r:udm5334-udt1298lv) Units=km Length=0.00964685 bus1=udt1298lv.1.2 bus2=udm5334.1.2 switch=n enabled=y phases=2 Linecode=1P_UG_AL_1/0_Brenau_0_416_0_2_2

New Line.l(r:p1ulv4665-udm5337) Units=km Length=0.0158531 bus1=udm5337.1.2 bus2=p1ulv4665.1.2 switch=n enabled=y phases=2 Linecode=1P_UG_AL_1/0_Brenau_0_416_0_2_2

New Line.l(r:udm5337-udt1298lv) Units=km Length=0.028950500000000004 bus1=udt1298lv.1.2 bus2=udm5337.1.2 switch=n enabled=y phases=2 Linecode=1P_UG_AL_1/0_Brenau_0_416_0_2_2

New Line.l(r:p1ulv2794-udt1299lv) Units=km Length=0.00951475 bus1=udt1299lv.1.2 bus2=p1ulv2794.1.2 switch=n enabled=y phases=2 Linecode=1P_UG_AL_1/0_Brenau_0_416_0_2_2

New Line.l(r:p1ulv4661-udm5339) Units=km Length=0.0200088 bus1=udm5339.1.2 bus2=p1ulv4661.1.2 switch=n enabled=y phases=2 Linecode=1P_OH_AL_2/0_Rucina_0_416_0_2_2

New Line.l(r:udm5339-udt1299lv) Units=km Length=0.0661441 bus1=udt1299lv.1.2 bus2=udm5339.1.2 switch=n enabled=y phases=2 Linecode=1P_OH_AL_4/0_Zuzara_0_416_0_2_2

New Line.l(r:p1ulv27943-udm5340) Units=km Length=0.0305361 bus1=udm5340.1.2 bus2=p1ulv27943.1.2 switch=n enabled=y phases=2 Linecode=1P_UG_AL_1/0_Brenau_0_416_0_2_2

New Line.l(r:udm5340-udt1299lv) Units=km Length=0.019223 bus1=udt1299lv.1.2 bus2=udm5340.1.2 switch=n enabled=y phases=2 Linecode=1P_UG_AL_1/0_Brenau_0_416_0_2_2

New Line.l(r:p1ulv4648-udt1300lv) Units=km Length=0.014781700000000002 bus1=udt1300lv.1.2 bus2=p1ulv4648.1.2 switch=n enabled=y phases=2 Linecode=1P_UG_AL_1/0_Brenau_0_416_0_2_2

New Line.l(r:p1ulv2795-udm5341) Units=km Length=0.0169571 bus1=udm5341.1.2 bus2=p1ulv2795.1.2 switch=n enabled=y phases=2 Linecode=1P_UG_AL_1/0_Brenau_0_416_0_2_2

New Line.l(r:udm5341-udt1300lv) Units=km Length=0.00956879 bus1=udt1300lv.1.2 bus2=udm5341.1.2 switch=n enabled=y phases=2 Linecode=1P_UG_AL_1/0_Brenau_0_416_0_2_2

New Line.l(r:p1ulv2796-udt1301lv) Units=km Length=0.0141712 bus1=udt1301lv.1.2 bus2=p1ulv2796.1.2 switch=n enabled=y phases=2 Linecode=1P_UG_AL_1/0_Brenau_0_416_0_2_2

New Line.l(r:p1ulv4649-udt1301lv) Units=km Length=0.0163154 bus1=udt1301lv.1.2 bus2=p1ulv4649.1.2 switch=n enabled=y phases=2 Linecode=1P_UG_AL_1/0_Brenau_0_416_0_2_2

New Line.l(r:p1ulv4646-udm5344) Units=km Length=0.0136695 bus1=udm5344.1.2 bus2=p1ulv4646.1.2 switch=n enabled=y phases=2 Linecode=1P_UG_AL_1/0_Brenau_0_416_0_2_2

New Line.l(r:p1ulv4658-udm5347) Units=km Length=0.0153952 bus1=udm5347.1.2 bus2=p1ulv4658.1.2 switch=n enabled=y phases=2 Linecode=1P_UG_AL_1/0_Brenau_0_416_0_2_2

New Line.l(r:p1ulv4654-udm5346) Units=km Length=0.0135965 bus1=udm5346.1.2 bus2=p1ulv4654.1.2 switch=n enabled=y phases=2 Linecode=1P_UG_AL_1/0_Brenau_0_416_0_2_2

New Line.l(r:p1ulv4669-udm5346) Units=km Length=0.0157411 bus1=udm5346.1.2 bus2=p1ulv4669.1.2 switch=n enabled=y phases=2 Linecode=1P_UG_AL_1/0_Brenau_0_416_0_2_2

New Line.l(r:udm5346-udm5347) Units=km Length=0.0096115 bus1=udm5347.1.2 bus2=udm5346.1.2 switch=n enabled=y phases=2 Linecode=1P_UG_AL_1/0_Brenau_0_416_0_2_2

New Line.l(r:udm5344-udm5347) Units=km Length=0.0096115 bus1=udm5344.1.2 bus2=udm5347.1.2 switch=n enabled=y phases=2 Linecode=1P_UG_AL_1/0_Brenau_0_416_0_2_2

New Line.l(r:udm5344-udt1301lv) Units=km Length=0.0096115 bus1=udt1301lv.1.2 bus2=udm5344.1.2 switch=n enabled=y phases=2 Linecode=1P_UG_AL_4/0_Sweetbriar_0_416_0_2_2

New Line.l(r:p1ulv34599-udm5350) Units=km Length=0.0148345 bus1=udm5350.1.2 bus2=p1ulv34599.1.2 switch=n enabled=y phases=2 Linecode=1P_UG_AL_1/0_Brenau_0_416_0_2_2

New Line.l(r:p1ulv4659-udm5348) Units=km Length=0.016678700000000005 bus1=udm5348.1.2 bus2=p1ulv4659.1.2 switch=n enabled=y phases=2 Linecode=1P_UG_AL_1/0_Brenau_0_416_0_2_2

New Line.l(r:p1ulv36718-udm5351) Units=km Length=0.0157912 bus1=udm5351.1.2 bus2=p1ulv36718.1.2 switch=n enabled=y phases=2 Linecode=1P_UG_AL_1/0_Brenau_0_416_0_2_2

New Line.l(r:udm5348-udm5351) Units=km Length=0.00960151 bus1=udm5348.1.2 bus2=udm5351.1.2 switch=n enabled=y phases=2 Linecode=1P_UG_AL_1/0_Brenau_0_416_0_2_2

New Line.l(r:udm5348-udm5350) Units=km Length=0.0096115 bus1=udm5350.1.2 bus2=udm5348.1.2 switch=n enabled=y phases=2 Linecode=1P_UG_AL_1/0_Brenau_0_416_0_2_2

New Line.l(r:udm5350-udt1301lv) Units=km Length=0.0096115 bus1=udt1301lv.1.2 bus2=udm5350.1.2 switch=n enabled=y phases=2 Linecode=1P_UG_AL_1/0_Brenau_0_416_0_2_2

New Line.l(r:p1ulv2799-udt1303lv) Units=km Length=0.0198115 bus1=udt1303lv.1.2 bus2=p1ulv2799.1.2 switch=n enabled=y phases=2 Linecode=1P_OH_AL_2/0_Rucina_0_416_0_2_2

New Line.l(r:p1ulv4496-udm5354) Units=km Length=0.0194633 bus1=udm5354.1.2 bus2=p1ulv4496.1.2 switch=n enabled=y phases=2 Linecode=1P_OH_AL_2/0_Rucina_0_416_0_2_2

New Line.l(r:udm5354-udt1303lv) Units=km Length=0.0186978 bus1=udt1303lv.1.2 bus2=udm5354.1.2 switch=n enabled=y phases=2 Linecode=1P_OH_AL_2/0_Rucina_0_416_0_2_2

New Line.l(r:p1ulv2800-udm5355) Units=km Length=0.0158917 bus1=udm5355.1.2 bus2=p1ulv2800.1.2 switch=n enabled=y phases=2 Linecode=1P_UG_AL_1/0_Brenau_0_416_0_2_2

New Line.l(r:udm5355-udt1304lv) Units=km Length=0.00938051 bus1=udt1304lv.1.2 bus2=udm5355.1.2 switch=n enabled=y phases=2 Linecode=1P_UG_AL_1/0_Brenau_0_416_0_2_2

New Line.l(r:p1ulv2802-udm5356) Units=km Length=0.013964 bus1=udm5356.1.2 bus2=p1ulv2802.1.2 switch=n enabled=y phases=2 Linecode=1P_UG_AL_1/0_Brenau_0_416_0_2_2

New Line.l(r:udm5356-udt1304lv) Units=km Length=0.00937053 bus1=udt1304lv.1.2 bus2=udm5356.1.2 switch=n enabled=y phases=2 Linecode=1P_UG_AL_1/0_Brenau_0_416_0_2_2

New Line.l(r:p1ulv2801-udt1305lv) Units=km Length=0.009070660000000001 bus1=udt1305lv.1.2 bus2=p1ulv2801.1.2 switch=n enabled=y phases=2 Linecode=1P_UG_AL_1/0_Brenau_0_416_0_2_2

New Line.l(r:p1ulv2814-udt1305lv) Units=km Length=0.006429 bus1=udt1305lv.1.2 bus2=p1ulv2814.1.2 switch=n enabled=y phases=2 Linecode=1P_UG_AL_4/0_Sweetbriar_0_416_0_2_2

New Line.l(r:p1ulv2812-udm5358) Units=km Length=0.00970676 bus1=udm5358.1.2 bus2=p1ulv2812.1.2 switch=n enabled=y phases=2 Linecode=1P_UG_AL_4/0_Sweetbriar_0_416_0_2_2

New Line.l(r:udm5358-udt1305lv) Units=km Length=0.00858553 bus1=udt1305lv.1.2 bus2=udm5358.1.2 switch=n enabled=y phases=2 Linecode=1P_UG_AL_4/0_Sweetbriar_0_416_0_2_2

New Line.l(r:p1ulv2803-udt1306lv) Units=km Length=0.00521018 bus1=udt1306lv.1.2 bus2=p1ulv2803.1.2 switch=n enabled=y phases=2 Linecode=1P_UG_AL_1/0_Brenau_0_416_0_2_2

New Line.l(r:p1ulv2816-udt1306lv) Units=km Length=0.0190379 bus1=udt1306lv.1.2 bus2=p1ulv2816.1.2 switch=n enabled=y phases=2 Linecode=1P_UG_AL_1/0_Brenau_0_416_0_2_2

New Line.l(r:p1ulv2820-udt1306lv) Units=km Length=0.0193899 bus1=udt1306lv.1.2 bus2=p1ulv2820.1.2 switch=n enabled=y phases=2 Linecode=1P_UG_AL_4/0_Sweetbriar_0_416_0_2_2

New Line.l(r:p1ulv2804-udt1307lv) Units=km Length=0.0324183 bus1=udt1307lv.1.2 bus2=p1ulv2804.1.2 switch=n enabled=y phases=2 Linecode=1P_UG_AL_4/0_Sweetbriar_0_416_0_2_2

New Line.l(r:p1ulv2805-udt1308lv) Units=km Length=0.0177191 bus1=udt1308lv.1.2 bus2=p1ulv2805.1.2 switch=n enabled=y phases=2 Linecode=1P_OH_AL_2/0_Rucina_0_416_0_2_2

New Line.l(r:p1ulv2808-udm5365) Units=km Length=0.0185994 bus1=udm5365.1.2 bus2=p1ulv2808.1.2 switch=n enabled=y phases=2 Linecode=1P_OH_AL_2/0_Rucina_0_416_0_2_2

New Line.l(r:p1ulv40888-udm5365) Units=km Length=0.0839718 bus1=udm5365.1.2 bus2=p1ulv40888.1.2 switch=n enabled=y phases=2 Linecode=1P_OH_AL_4/0_Zuzara_0_416_0_2_2

New Line.l(r:udm5365-udt1308lv) Units=km Length=0.0194794 bus1=udt1308lv.1.2 bus2=udm5365.1.2 switch=n enabled=y phases=2 Linecode=1P_OH_AL_2/0_Rucina_0_416_0_2_2

New Line.l(r:p1ulv44370-udm5367) Units=km Length=0.0178606 bus1=udm5367.1.2 bus2=p1ulv44370.1.2 switch=n enabled=y phases=2 Linecode=1P_OH_AL_2/0_Rucina_0_416_0_2_2

New Line.l(r:udm5367-udt1308lv) Units=km Length=0.0194794 bus1=udt1308lv.1.2 bus2=udm5367.1.2 switch=n enabled=y phases=2 Linecode=1P_OH_AL_2/0_Rucina_0_416_0_2_2

New Line.l(r:p1ulv2806-udt1309lv) Units=km Length=0.0333084 bus1=udt1309lv.1.2 bus2=p1ulv2806.1.2 switch=n enabled=y phases=2 Linecode=1P_UG_AL_1/0_Brenau_0_416_0_2_2

New Line.l(r:p1ulv4662-udm5369) Units=km Length=0.012552500000000001 bus1=udm5369.1.2 bus2=p1ulv4662.1.2 switch=n enabled=y phases=2 Linecode=1P_UG_AL_1/0_Brenau_0_416_0_2_2

New Line.l(r:udm5369-udt1309lv) Units=km Length=0.00956879 bus1=udt1309lv.1.2 bus2=udm5369.1.2 switch=n enabled=y phases=2 Linecode=1P_UG_AL_1/0_Brenau_0_416_0_2_2

New Line.l(r:p1ulv2810-udt1310lv) Units=km Length=0.0151913 bus1=udt1310lv.1.2 bus2=p1ulv2810.1.2 switch=n enabled=y phases=2 Linecode=1P_UG_AL_2/0_Converse_0_416_0_2_2

New Line.l(r:p1ulv42472-udt1310lv) Units=km Length=0.0414929 bus1=udt1310lv.1.2 bus2=p1ulv42472.1.2 switch=n enabled=y phases=2 Linecode=1P_UG_AL_1/0_Brenau_0_416_0_2_2

New Line.l(r:p1ulv2807-udm5370) Units=km Length=0.0144471 bus1=udm5370.1.2 bus2=p1ulv2807.1.2 switch=n enabled=y phases=2 Linecode=1P_UG_AL_1/0_Brenau_0_416_0_2_2

New Line.l(r:udm5370-udt1310lv) Units=km Length=0.0683765 bus1=udt1310lv.1.2 bus2=udm5370.1.2 switch=n enabled=y phases=2 Linecode=1P_UG_AL_1/0_Brenau_0_416_0_2_2

New Line.l(r:p1ulv2809-udm5373) Units=km Length=0.0172118 bus1=udm5373.1.2 bus2=p1ulv2809.1.2 switch=n enabled=y phases=2 Linecode=1P_OH_AL_2/0_Rucina_0_416_0_2_2

New Line.l(r:udm5373-udt1311lv) Units=km Length=0.0507411 bus1=udt1311lv.1.2 bus2=udm5373.1.2 switch=n enabled=y phases=2 Linecode=1P_OH_AL_4/0_Zuzara_0_416_0_2_2

New Line.l(r:p1ulv2822-udm5374) Units=km Length=0.0133478 bus1=udm5374.1.2 bus2=p1ulv2822.1.2 switch=n enabled=y phases=2 Linecode=1P_OH_AL_2/0_Rucina_0_416_0_2_2

New Line.l(r:udm5374-udt1311lv) Units=km Length=0.007694 bus1=udt1311lv.1.2 bus2=udm5374.1.2 switch=n enabled=y phases=2 Linecode=1P_OH_AL_2/0_Rucina_0_416_0_2_2

New Line.l(r:p1ulv2811-udt1312lv) Units=km Length=0.0232725 bus1=udt1312lv.1.2 bus2=p1ulv2811.1.2 switch=n enabled=y phases=2 Linecode=1P_UG_AL_1/0_Brenau_0_416_0_2_2

New Line.l(r:p1ulv2813-udt1312lv) Units=km Length=0.0383135 bus1=udt1312lv.1.2 bus2=p1ulv2813.1.2 switch=n enabled=y phases=2 Linecode=1P_UG_AL_4/0_Sweetbriar_0_416_0_2_2

New Line.l(r:p1ulv2815-udt1313lv) Units=km Length=0.0137546 bus1=udt1313lv.1.2 bus2=p1ulv2815.1.2 switch=n enabled=y phases=2 Linecode=1P_UG_AL_1/0_Brenau_0_416_0_2_2

New Line.l(r:p1ulv37935-udt1313lv) Units=km Length=0.061816800000000005 bus1=udt1313lv.1.2 bus2=p1ulv37935.1.2 switch=n enabled=y phases=2 Linecode=1P_UG_AL_4/0_Sweetbriar_0_416_0_2_2

New Line.l(r:p1ulv45702-udt1313lv) Units=km Length=0.0413144 bus1=udt1313lv.1.2 bus2=p1ulv45702.1.2 switch=n enabled=y phases=2 Linecode=1P_UG_AL_1/0_Brenau_0_416_0_2_2

New Line.l(r:p1ulv2817-udt1314lv) Units=km Length=0.0196657 bus1=udt1314lv.1.2 bus2=p1ulv2817.1.2 switch=n enabled=y phases=2 Linecode=1P_OH_AL_2/0_Rucina_0_416_0_2_2

New Line.l(r:p1ulv2818-udm5381) Units=km Length=0.018444 bus1=udm5381.1.2 bus2=p1ulv2818.1.2 switch=n enabled=y phases=2 Linecode=1P_OH_AL_2/0_Rucina_0_416_0_2_2

New Line.l(r:p1ulv6162-udm5382) Units=km Length=0.0188057 bus1=udm5382.1.2 bus2=p1ulv6162.1.2 switch=n enabled=y phases=2 Linecode=1P_UG_AL_1/0_Brenau_0_416_0_2_2

New Line.l(r:udm5381-udm5382) Units=km Length=0.0736602 bus1=udm5381.1.2 bus2=udm5382.1.2 switch=n enabled=y phases=2 Linecode=1P_OH_AL_4/0_Zuzara_0_416_0_2_2

New Line.l(r:udm5381-udt1314lv) Units=km Length=0.0194794 bus1=udt1314lv.1.2 bus2=udm5381.1.2 switch=n enabled=y phases=2 Linecode=1P_OH_AL_2/0_Rucina_0_416_0_2_2

New Line.l(r:p1ulv2821-udm5386) Units=km Length=0.024065900000000005 bus1=udm5386.1.2 bus2=p1ulv2821.1.2 switch=n enabled=y phases=2 Linecode=1P_UG_AL_4/0_Sweetbriar_0_416_0_2_2

New Line.l(r:udm5386-udt1316lv) Units=km Length=0.0171789 bus1=udt1316lv.1.2 bus2=udm5386.1.2 switch=n enabled=y phases=2 Linecode=1P_UG_AL_4/0_Sweetbriar_0_416_0_2_2

New Line.l(r:p1ulv2823-udm5387) Units=km Length=0.015347 bus1=udm5387.1.2 bus2=p1ulv2823.1.2 switch=n enabled=y phases=2 Linecode=1P_UG_AL_1/0_Brenau_0_416_0_2_2

New Line.l(r:udm5387-udt1316lv) Units=km Length=0.0668055 bus1=udt1316lv.1.2 bus2=udm5387.1.2 switch=n enabled=y phases=2 Linecode=1P_UG_AL_1/0_Brenau_0_416_0_2_2

New Line.l(r:p1ulv31535-udt1317lv) Units=km Length=0.0145034 bus1=udt1317lv.1.2 bus2=p1ulv31535.1.2 switch=n enabled=y phases=2 Linecode=1P_UG_AL_1/0_Brenau_0_416_0_2_2

New Line.l(r:p1ulv2824-udm5388) Units=km Length=0.0136333 bus1=udm5388.1.2 bus2=p1ulv2824.1.2 switch=n enabled=y phases=2 Linecode=1P_UG_AL_1/0_Brenau_0_416_0_2_2

New Line.l(r:udm5388-udt1317lv) Units=km Length=0.00998304 bus1=udt1317lv.1.2 bus2=udm5388.1.2 switch=n enabled=y phases=2 Linecode=1P_UG_AL_1/0_Brenau_0_416_0_2_2

New Line.l(r:p1ulv4457-udt2008lv) Units=km Length=0.0231563 bus1=udt2008lv.1.2 bus2=p1ulv4457.1.2 switch=n enabled=y phases=2 Linecode=1P_OH_AL_2/0_Rucina_0_416_0_2_2

New Line.l(r:p1ulv4474-udt2009lv) Units=km Length=0.0147787 bus1=udt2009lv.1.2 bus2=p1ulv4474.1.2 switch=n enabled=y phases=2 Linecode=1P_UG_AL_1/0_Brenau_0_416_0_2_2

New Line.l(r:p1ulv6157-udt2009lv) Units=km Length=0.0174644 bus1=udt2009lv.1.2 bus2=p1ulv6157.1.2 switch=n enabled=y phases=2 Linecode=1P_UG_AL_1/0_Brenau_0_416_0_2_2

New Line.l(r:p1ulv6151-udm8057) Units=km Length=0.0190404 bus1=udm8057.1.2 bus2=p1ulv6151.1.2 switch=n enabled=y phases=2 Linecode=1P_UG_AL_1/0_Brenau_0_416_0_2_2

New Line.l(r:p1ulv6193-udm8057) Units=km Length=0.0183483 bus1=udm8057.1.2 bus2=p1ulv6193.1.2 switch=n enabled=y phases=2 Linecode=1P_UG_AL_1/0_Brenau_0_416_0_2_2

New Line.l(r:udm8057-udt2009lv) Units=km Length=0.00973088 bus1=udt2009lv.1.2 bus2=udm8057.1.2 switch=n enabled=y phases=2 Linecode=1P_UG_AL_1/0_Brenau_0_416_0_2_2

New Line.l(r:p1ulv37466-udm8060) Units=km Length=0.0420647 bus1=udm8060.1.2 bus2=p1ulv37466.1.2 switch=n enabled=y phases=2 Linecode=1P_UG_AL_1/0_Brenau_0_416_0_2_2

New Line.l(r:p1ulv4458-udm8055) Units=km Length=0.0146157 bus1=udm8055.1.2 bus2=p1ulv4458.1.2 switch=n enabled=y phases=2 Linecode=1P_UG_AL_1/0_Brenau_0_416_0_2_2

New Line.l(r:udm8055-udm8060) Units=km Length=0.009730410000000002 bus1=udm8060.1.2 bus2=udm8055.1.2 switch=n enabled=y phases=2 Linecode=1P_UG_AL_1/0_Brenau_0_416_0_2_2

New Line.l(r:udm8060-udt2009lv) Units=km Length=0.00974087 bus1=udt2009lv.1.2 bus2=udm8060.1.2 switch=n enabled=y phases=2 Linecode=1P_UG_AL_1/0_Brenau_0_416_0_2_2

New Line.l(r:p1ulv4459-udt2010lv) Units=km Length=0.021204 bus1=udt2010lv.1.2 bus2=p1ulv4459.1.2 switch=n enabled=y phases=2 Linecode=1P_UG_AL_1/0_Brenau_0_416_0_2_2

New Line.l(r:p1ulv6156-udt2010lv) Units=km Length=0.0205417 bus1=udt2010lv.1.2 bus2=p1ulv6156.1.2 switch=n enabled=y phases=2 Linecode=1P_UG_AL_1/0_Brenau_0_416_0_2_2

New Line.l(r:p1ulv4461-udm8062) Units=km Length=0.0198569 bus1=udm8062.1.2 bus2=p1ulv4461.1.2 switch=n enabled=y phases=2 Linecode=1P_UG_AL_1/0_Brenau_0_416_0_2_2

New Line.l(r:p1ulv6165-udm8066) Units=km Length=0.021911900000000005 bus1=udm8066.1.2 bus2=p1ulv6165.1.2 switch=n enabled=y phases=2 Linecode=1P_UG_AL_1/0_Brenau_0_416_0_2_2

New Line.l(r:p1ulv4481-udm8063) Units=km Length=0.0202562 bus1=udm8063.1.2 bus2=p1ulv4481.1.2 switch=n enabled=y phases=2 Linecode=1P_UG_AL_1/0_Brenau_0_416_0_2_2

New Line.l(r:udm8063-udm8066) Units=km Length=0.00959304 bus1=udm8066.1.2 bus2=udm8063.1.2 switch=n enabled=y phases=2 Linecode=1P_UG_AL_1/0_Brenau_0_416_0_2_2

New Line.l(r:udm8062-udm8066) Units=km Length=0.00960303 bus1=udm8062.1.2 bus2=udm8066.1.2 switch=n enabled=y phases=2 Linecode=1P_UG_AL_1/0_Brenau_0_416_0_2_2

New Line.l(r:udm8062-udt2010lv) Units=km Length=0.00959357 bus1=udt2010lv.1.2 bus2=udm8062.1.2 switch=n enabled=y phases=2 Linecode=1P_UG_AL_4/0_Sweetbriar_0_416_0_2_2

New Line.l(r:p1ulv6150-udm8064) Units=km Length=0.0213045 bus1=udm8064.1.2 bus2=p1ulv6150.1.2 switch=n enabled=y phases=2 Linecode=1P_UG_AL_1/0_Brenau_0_416_0_2_2

New Line.l(r:p1ulv6199-udm8064) Units=km Length=0.0193373 bus1=udm8064.1.2 bus2=p1ulv6199.1.2 switch=n enabled=y phases=2 Linecode=1P_UG_AL_1/0_Brenau_0_416_0_2_2

New Line.l(r:udm8064-udt2010lv) Units=km Length=0.0191961 bus1=udt2010lv.1.2 bus2=udm8064.1.2 switch=n enabled=y phases=2 Linecode=1P_UG_AL_1/0_Brenau_0_416_0_2_2

New Line.l(r:p1ulv4460-udt2011lv) Units=km Length=0.0240468 bus1=udt2011lv.1.2 bus2=p1ulv4460.1.2 switch=n enabled=y phases=2 Linecode=1P_OH_AL_2/0_Rucina_0_416_0_2_2

New Line.l(r:p1ulv4462-udt2012lv) Units=km Length=0.0199 bus1=udt2012lv.1.2 bus2=p1ulv4462.1.2 switch=n enabled=y phases=2 Linecode=1P_UG_AL_1/0_Brenau_0_416_0_2_2

New Line.l(r:p1ulv6159-udm8071) Units=km Length=0.0183073 bus1=udm8071.1.2 bus2=p1ulv6159.1.2 switch=n enabled=y phases=2 Linecode=1P_UG_AL_1/0_Brenau_0_416_0_2_2

New Line.l(r:udm8071-udt2012lv) Units=km Length=0.00959304 bus1=udt2012lv.1.2 bus2=udm8071.1.2 switch=n enabled=y phases=2 Linecode=1P_UG_AL_1/0_Brenau_0_416_0_2_2

New Line.l(r:p1ulv37932-udm8072) Units=km Length=0.0174124 bus1=udm8072.1.2 bus2=p1ulv37932.1.2 switch=n enabled=y phases=2 Linecode=1P_UG_AL_1/0_Brenau_0_416_0_2_2

New Line.l(r:p1ulv4480-udm8070) Units=km Length=0.0201839 bus1=udm8070.1.2 bus2=p1ulv4480.1.2 switch=n enabled=y phases=2 Linecode=1P_UG_AL_1/0_Brenau_0_416_0_2_2

New Line.l(r:udm8070-udm8072) Units=km Length=0.00959304 bus1=udm8072.1.2 bus2=udm8070.1.2 switch=n enabled=y phases=2 Linecode=1P_UG_AL_1/0_Brenau_0_416_0_2_2

New Line.l(r:udm8072-udt2012lv) Units=km Length=0.00960303 bus1=udt2012lv.1.2 bus2=udm8072.1.2 switch=n enabled=y phases=2 Linecode=1P_UG_AL_2/0_Converse_0_416_0_2_2

New Line.l(r:p1ulv6195-udt2013lv) Units=km Length=0.0205237 bus1=udt2013lv.1.2 bus2=p1ulv6195.1.2 switch=n enabled=y phases=2 Linecode=1P_OH_AL_2/0_Rucina_0_416_0_2_2

New Line.l(r:p1ulv42648-udt2013lv) Units=km Length=0.0147053 bus1=udt2013lv.1.2 bus2=p1ulv42648.1.2 switch=n enabled=y phases=2 Linecode=1P_OH_AL_2/0_Rucina_0_416_0_2_2

New Line.l(r:p1ulv4463-udm8073) Units=km Length=0.0197576 bus1=udm8073.1.2 bus2=p1ulv4463.1.2 switch=n enabled=y phases=2 Linecode=1P_OH_AL_2/0_Rucina_0_416_0_2_2

New Line.l(r:p1ulv33332-udm8073) Units=km Length=0.0173914 bus1=udm8073.1.2 bus2=p1ulv33332.1.2 switch=n enabled=y phases=2 Linecode=1P_OH_AL_2/0_Rucina_0_416_0_2_2

New Line.l(r:p1ulv4507-udm8078) Units=km Length=0.0172 bus1=udm8078.1.2 bus2=p1ulv4507.1.2 switch=n enabled=y phases=2 Linecode=1P_OH_AL_2/0_Rucina_0_416_0_2_2

New Line.l(r:p1ulv32952-udm8078) Units=km Length=0.0165099 bus1=udm8078.1.2 bus2=p1ulv32952.1.2 switch=n enabled=y phases=2 Linecode=1P_OH_AL_2/0_Rucina_0_416_0_2_2

New Line.l(r:udm8073-udm8078) Units=km Length=0.0177808 bus1=udm8073.1.2 bus2=udm8078.1.2 switch=n enabled=y phases=2 Linecode=1P_OH_AL_2/0_Rucina_0_416_0_2_2

New Line.l(r:udm8073-udt2013lv) Units=km Length=0.0177808 bus1=udt2013lv.1.2 bus2=udm8073.1.2 switch=n enabled=y phases=2 Linecode=1P_OH_AL_2/0_Rucina_0_416_0_2_2

New Line.l(r:p1ulv4476-udm8074) Units=km Length=0.0174038 bus1=udm8074.1.2 bus2=p1ulv4476.1.2 switch=n enabled=y phases=2 Linecode=1P_UG_AL_1/0_Brenau_0_416_0_2_2

New Line.l(r:p1ulv4504-udm8077) Units=km Length=0.012560500000000002 bus1=udm8077.1.2 bus2=p1ulv4504.1.2 switch=n enabled=y phases=2 Linecode=1P_UG_AL_1/0_Brenau_0_416_0_2_2

New Line.l(r:p1ulv4487-udm8075) Units=km Length=0.0210189 bus1=udm8075.1.2 bus2=p1ulv4487.1.2 switch=n enabled=y phases=2 Linecode=1P_UG_AL_1/0_Brenau_0_416_0_2_2

New Line.l(r:p1ulv4497-udm8076) Units=km Length=0.0166134 bus1=udm8076.1.2 bus2=p1ulv4497.1.2 switch=n enabled=y phases=2 Linecode=1P_UG_AL_1/0_Brenau_0_416_0_2_2

New Line.l(r:udm8075-udm8076) Units=km Length=0.00979718 bus1=udm8075.1.2 bus2=udm8076.1.2 switch=n enabled=y phases=2 Linecode=1P_UG_AL_1/0_Brenau_0_416_0_2_2

New Line.l(r:udm8075-udm8077) Units=km Length=0.00979718 bus1=udm8077.1.2 bus2=udm8075.1.2 switch=n enabled=y phases=2 Linecode=1P_UG_AL_1/0_Brenau_0_416_0_2_2

New Line.l(r:udm8074-udm8077) Units=km Length=0.00980717 bus1=udm8074.1.2 bus2=udm8077.1.2 switch=n enabled=y phases=2 Linecode=1P_UG_AL_4/0_Sweetbriar_0_416_0_2_2

New Line.l(r:udm8074-udt2013lv) Units=km Length=0.00979718 bus1=udt2013lv.1.2 bus2=udm8074.1.2 switch=n enabled=y phases=2 Linecode=1P_OH_AL_2/0_Rucina_0_416_0_2_2

New Line.l(r:p1ulv4464-udt2014lv) Units=km Length=0.0209462 bus1=udt2014lv.1.2 bus2=p1ulv4464.1.2 switch=n enabled=y phases=2 Linecode=1P_UG_AL_1/0_Brenau_0_416_0_2_2

New Line.l(r:p1ulv6190-udm8084) Units=km Length=0.0249811 bus1=udm8084.1.2 bus2=p1ulv6190.1.2 switch=n enabled=y phases=2 Linecode=1P_OH_AL_2/0_Rucina_0_416_0_2_2

New Line.l(r:udm8084-udt2014lv) Units=km Length=0.00998835 bus1=udt2014lv.1.2 bus2=udm8084.1.2 switch=n enabled=y phases=2 Linecode=1P_OH_AL_2/0_Rucina_0_416_0_2_2

New Line.l(r:p1ulv4465-udt2015lv) Units=km Length=0.0207547 bus1=udt2015lv.1.2 bus2=p1ulv4465.1.2 switch=n enabled=y phases=2 Linecode=1P_UG_AL_1/0_Brenau_0_416_0_2_2

New Line.l(r:p1ulv6152-udm8086) Units=km Length=0.0156924 bus1=udm8086.1.2 bus2=p1ulv6152.1.2 switch=n enabled=y phases=2 Linecode=1P_UG_AL_1/0_Brenau_0_416_0_2_2

New Line.l(r:udm8086-udt2015lv) Units=km Length=0.00959304 bus1=udt2015lv.1.2 bus2=udm8086.1.2 switch=n enabled=y phases=2 Linecode=1P_UG_AL_1/0_Brenau_0_416_0_2_2

New Line.l(r:p1ulv4466-udt2016lv) Units=km Length=0.0149918 bus1=udt2016lv.1.2 bus2=p1ulv4466.1.2 switch=n enabled=y phases=2 Linecode=1P_UG_AL_1/0_Brenau_0_416_0_2_2

New Line.l(r:p1ulv4467-udm8088) Units=km Length=0.0175139 bus1=udm8088.1.2 bus2=p1ulv4467.1.2 switch=n enabled=y phases=2 Linecode=1P_UG_AL_1/0_Brenau_0_416_0_2_2

New Line.l(r:p1ulv4515-udm8088) Units=km Length=0.018156300000000004 bus1=udm8088.1.2 bus2=p1ulv4515.1.2 switch=n enabled=y phases=2 Linecode=1P_UG_AL_1/0_Brenau_0_416_0_2_2

New Line.l(r:p1ulv4520-udm8092) Units=km Length=0.021381500000000005 bus1=udm8092.1.2 bus2=p1ulv4520.1.2 switch=n enabled=y phases=2 Linecode=1P_UG_AL_1/0_Brenau_0_416_0_2_2

New Line.l(r:udm8088-udm8092) Units=km Length=0.0194323 bus1=udm8088.1.2 bus2=udm8092.1.2 switch=n enabled=y phases=2 Linecode=1P_UG_AL_1/0_Brenau_0_416_0_2_2

New Line.l(r:udm8088-udt2016lv) Units=km Length=0.00972137 bus1=udt2016lv.1.2 bus2=udm8088.1.2 switch=n enabled=y phases=2 Linecode=1P_UG_AL_2/0_Converse_0_416_0_2_2

New Line.l(r:p1ulv4503-udm8090) Units=km Length=0.0179032 bus1=udm8090.1.2 bus2=p1ulv4503.1.2 switch=n enabled=y phases=2 Linecode=1P_UG_AL_1/0_Brenau_0_416_0_2_2

New Line.l(r:p1ulv4482-udm8089) Units=km Length=0.0166213 bus1=udm8089.1.2 bus2=p1ulv4482.1.2 switch=n enabled=y phases=2 Linecode=1P_UG_AL_1/0_Brenau_0_416_0_2_2

New Line.l(r:udm8089-udm8090) Units=km Length=0.00972137 bus1=udm8090.1.2 bus2=udm8089.1.2 switch=n enabled=y phases=2 Linecode=1P_UG_AL_1/0_Brenau_0_416_0_2_2

New Line.l(r:udm8090-udt2016lv) Units=km Length=0.00971138 bus1=udt2016lv.1.2 bus2=udm8090.1.2 switch=n enabled=y phases=2 Linecode=1P_UG_AL_1/0_Brenau_0_416_0_2_2

New Line.l(r:p1ulv4477-udt2017lv) Units=km Length=0.0249966 bus1=udt2017lv.1.2 bus2=p1ulv4477.1.2 switch=n enabled=y phases=2 Linecode=1P_OH_AL_2/0_Rucina_0_416_0_2_2

New Line.l(r:p1ulv4468-udm8093) Units=km Length=0.0241125 bus1=udm8093.1.2 bus2=p1ulv4468.1.2 switch=n enabled=y phases=2 Linecode=1P_OH_AL_2/0_Rucina_0_416_0_2_2

New Line.l(r:udm8093-udt2017lv) Units=km Length=0.0190573 bus1=udt2017lv.1.2 bus2=udm8093.1.2 switch=n enabled=y phases=2 Linecode=1P_OH_AL_2/0_Rucina_0_416_0_2_2

New Line.l(r:p1ulv4488-udm8097) Units=km Length=0.0147939 bus1=udm8097.1.2 bus2=p1ulv4488.1.2 switch=n enabled=y phases=2 Linecode=1P_UG_AL_1/0_Brenau_0_416_0_2_2

New Line.l(r:p1ulv6163-udm8097) Units=km Length=0.0175924 bus1=udm8097.1.2 bus2=p1ulv6163.1.2 switch=n enabled=y phases=2 Linecode=1P_UG_AL_1/0_Brenau_0_416_0_2_2

New Line.l(r:p1ulv4469-udm8095) Units=km Length=0.019962 bus1=udm8095.1.2 bus2=p1ulv4469.1.2 switch=n enabled=y phases=2 Linecode=1P_UG_AL_1/0_Brenau_0_416_0_2_2

New Line.l(r:p1ulv6167-udm8095) Units=km Length=0.0190934 bus1=udm8095.1.2 bus2=p1ulv6167.1.2 switch=n enabled=y phases=2 Linecode=1P_UG_AL_1/0_Brenau_0_416_0_2_2

New Line.l(r:udm8095-udm8097) Units=km Length=0.0191861 bus1=udm8097.1.2 bus2=udm8095.1.2 switch=n enabled=y phases=2 Linecode=1P_UG_AL_1/0_Brenau_0_416_0_2_2

New Line.l(r:udm8097-udt2018lv) Units=km Length=0.00960303 bus1=udt2018lv.1.2 bus2=udm8097.1.2 switch=n enabled=y phases=2 Linecode=1P_UG_AL_4/0_Sweetbriar_0_416_0_2_2
