New Line.l(r:p1ulv2082-udt173lv) Units=km Length=0.0182674 bus1=udt173lv.1.2 bus2=p1ulv2082.1.2 switch=n enabled=y phases=2 Linecode=1P_UG_AL_1/0_Brenau_0_416_0_2_2

New Line.l(r:p1ulv2083-udt173lv) Units=km Length=0.0207541 bus1=udt173lv.1.2 bus2=p1ulv2083.1.2 switch=n enabled=y phases=2 Linecode=1P_UG_AL_1/0_Brenau_0_416_0_2_2

New Line.l(r:p1ulv2081-udm629) Units=km Length=0.0176978 bus1=udm629.1.2 bus2=p1ulv2081.1.2 switch=n enabled=y phases=2 Linecode=1P_UG_AL_1/0_Brenau_0_416_0_2_2

New Line.l(r:p1ulv214-udm628) Units=km Length=0.0225137 bus1=udm628.1.2 bus2=p1ulv214.1.2 switch=n enabled=y phases=2 Linecode=1P_UG_AL_1/0_Brenau_0_416_0_2_2

New Line.l(r:udm628-udm629) Units=km Length=0.00673131 bus1=udm629.1.2 bus2=udm628.1.2 switch=n enabled=y phases=2 Linecode=1P_UG_AL_1/0_Brenau_0_416_0_2_2

New Line.l(r:udm629-udt173lv) Units=km Length=0.00673131 bus1=udt173lv.1.2 bus2=udm629.1.2 switch=n enabled=y phases=2 Linecode=1P_UG_AL_4/0_Sweetbriar_0_416_0_2_2

New Line.l(r:p1ulv2084-udm632) Units=km Length=0.023557 bus1=udm632.1.2 bus2=p1ulv2084.1.2 switch=n enabled=y phases=2 Linecode=1P_UG_AL_2/0_Converse_0_416_0_2_2

New Line.l(r:udm632-udt173lv) Units=km Length=0.0085189 bus1=udt173lv.1.2 bus2=udm632.1.2 switch=n enabled=y phases=2 Linecode=1P_UG_AL_2/0_Converse_0_416_0_2_2

New Line.l(r:p1ulv215-udt174lv) Units=km Length=0.04487540000000001 bus1=udt174lv.1.2 bus2=p1ulv215.1.2 switch=n enabled=y phases=2 Linecode=1P_UG_AL_1/0_Brenau_0_416_0_2_2

New Line.l(r:p1ulv216-udm634) Units=km Length=0.0363995 bus1=udm634.1.2 bus2=p1ulv216.1.2 switch=n enabled=y phases=2 Linecode=1P_UG_AL_1/0_Brenau_0_416_0_2_2

New Line.l(r:p1ulv217-udm634) Units=km Length=0.0302003 bus1=udm634.1.2 bus2=p1ulv217.1.2 switch=n enabled=y phases=2 Linecode=1P_UG_AL_1/0_Brenau_0_416_0_2_2

New Line.l(r:p1ulv218-udm636) Units=km Length=0.020027000000000003 bus1=udm636.1.2 bus2=p1ulv218.1.2 switch=n enabled=y phases=2 Linecode=1P_UG_AL_1/0_Brenau_0_416_0_2_2

New Line.l(r:udm634-udm636) Units=km Length=0.00822815 bus1=udm634.1.2 bus2=udm636.1.2 switch=n enabled=y phases=2 Linecode=1P_UG_AL_1/0_Brenau_0_416_0_2_2

New Line.l(r:udm634-udt174lv) Units=km Length=0.00822898 bus1=udt174lv.1.2 bus2=udm634.1.2 switch=n enabled=y phases=2 Linecode=1P_UG_AL_4/0_Sweetbriar_0_416_0_2_2

New Line.l(r:p1ulv222-udm637) Units=km Length=0.041716 bus1=udm637.1.2 bus2=p1ulv222.1.2 switch=n enabled=y phases=2 Linecode=1P_UG_AL_1/0_Brenau_0_416_0_2_2

New Line.l(r:udm637-udt174lv) Units=km Length=0.0178 bus1=udt174lv.1.2 bus2=udm637.1.2 switch=n enabled=y phases=2 Linecode=1P_UG_AL_1/0_Brenau_0_416_0_2_2

New Line.l(r:p1ulv220-udt175lv) Units=km Length=0.0340126 bus1=udt175lv.1.2 bus2=p1ulv220.1.2 switch=n enabled=y phases=2 Linecode=1P_UG_AL_1/0_Brenau_0_416_0_2_2

New Line.l(r:p1ulv219-udm638) Units=km Length=0.029254 bus1=udm638.1.2 bus2=p1ulv219.1.2 switch=n enabled=y phases=2 Linecode=1P_UG_AL_1/0_Brenau_0_416_0_2_2

New Line.l(r:udm638-udt175lv) Units=km Length=0.008899990000000002 bus1=udt175lv.1.2 bus2=udm638.1.2 switch=n enabled=y phases=2 Linecode=1P_UG_AL_1/0_Brenau_0_416_0_2_2

New Line.l(r:p1ulv221-udm640) Units=km Length=0.0378578 bus1=udm640.1.2 bus2=p1ulv221.1.2 switch=n enabled=y phases=2 Linecode=1P_UG_AL_1/0_Brenau_0_416_0_2_2

New Line.l(r:udm640-udt175lv) Units=km Length=0.00889917 bus1=udt175lv.1.2 bus2=udm640.1.2 switch=n enabled=y phases=2 Linecode=1P_UG_AL_1/0_Brenau_0_416_0_2_2

New Line.l(r:p1ulv226-udt176lv) Units=km Length=0.0296039 bus1=udt176lv.1.2 bus2=p1ulv226.1.2 switch=n enabled=y phases=2 Linecode=1P_UG_AL_1/0_Brenau_0_416_0_2_2

New Line.l(r:p1ulv227-udt176lv) Units=km Length=0.0284121 bus1=udt176lv.1.2 bus2=p1ulv227.1.2 switch=n enabled=y phases=2 Linecode=1P_UG_AL_1/0_Brenau_0_416_0_2_2

New Line.l(r:p1ulv224-udm642) Units=km Length=0.031101 bus1=udm642.1.2 bus2=p1ulv224.1.2 switch=n enabled=y phases=2 Linecode=1P_UG_AL_1/0_Brenau_0_416_0_2_2

New Line.l(r:p1ulv223-udm641) Units=km Length=0.0321423 bus1=udm641.1.2 bus2=p1ulv223.1.2 switch=n enabled=y phases=2 Linecode=1P_UG_AL_1/0_Brenau_0_416_0_2_2

New Line.l(r:udm641-udm642) Units=km Length=0.0178057 bus1=udm642.1.2 bus2=udm641.1.2 switch=n enabled=y phases=2 Linecode=1P_UG_AL_1/0_Brenau_0_416_0_2_2

New Line.l(r:udm642-udt176lv) Units=km Length=0.00841687 bus1=udt176lv.1.2 bus2=udm642.1.2 switch=n enabled=y phases=2 Linecode=1P_UG_AL_4/0_Sweetbriar_0_416_0_2_2

New Line.l(r:p1ulv228-udm646) Units=km Length=0.0270242 bus1=udm646.1.2 bus2=p1ulv228.1.2 switch=n enabled=y phases=2 Linecode=1P_UG_AL_1/0_Brenau_0_416_0_2_2

New Line.l(r:p1ulv225-udm643) Units=km Length=0.0251863 bus1=udm643.1.2 bus2=p1ulv225.1.2 switch=n enabled=y phases=2 Linecode=1P_UG_AL_1/0_Brenau_0_416_0_2_2

New Line.l(r:udm643-udm646) Units=km Length=0.0168441 bus1=udm646.1.2 bus2=udm643.1.2 switch=n enabled=y phases=2 Linecode=1P_UG_AL_1/0_Brenau_0_416_0_2_2

New Line.l(r:udm646-udt176lv) Units=km Length=0.00841728 bus1=udt176lv.1.2 bus2=udm646.1.2 switch=n enabled=y phases=2 Linecode=1P_UG_AL_4/0_Sweetbriar_0_416_0_2_2

New Line.l(r:p1ulv229-udt177lv) Units=km Length=0.0139369 bus1=udt177lv.1.2 bus2=p1ulv229.1.2 switch=n enabled=y phases=2 Linecode=1P_UG_AL_1/0_Brenau_0_416_0_2_2

New Line.l(r:p1ulv230-udt177lv) Units=km Length=0.0100883 bus1=udt177lv.1.2 bus2=p1ulv230.1.2 switch=n enabled=y phases=2 Linecode=1P_UG_AL_1/0_Brenau_0_416_0_2_2

New Line.l(r:p1ulv231-udm649) Units=km Length=0.0250451 bus1=udm649.1.2 bus2=p1ulv231.1.2 switch=n enabled=y phases=2 Linecode=1P_UG_AL_1/0_Brenau_0_416_0_2_2

New Line.l(r:p1ulv232-udm649) Units=km Length=0.0285961 bus1=udm649.1.2 bus2=p1ulv232.1.2 switch=n enabled=y phases=2 Linecode=1P_UG_AL_1/0_Brenau_0_416_0_2_2

New Line.l(r:udm649-udt177lv) Units=km Length=0.00771174 bus1=udt177lv.1.2 bus2=udm649.1.2 switch=n enabled=y phases=2 Linecode=1P_UG_AL_2/0_Converse_0_416_0_2_2

New Line.l(r:p1ulv2109-udm651) Units=km Length=0.019408 bus1=udm651.1.2 bus2=p1ulv2109.1.2 switch=n enabled=y phases=2 Linecode=1P_UG_AL_1/0_Brenau_0_416_0_2_2

New Line.l(r:p1ulv2112-udm651) Units=km Length=0.0130143 bus1=udm651.1.2 bus2=p1ulv2112.1.2 switch=n enabled=y phases=2 Linecode=1P_UG_AL_1/0_Brenau_0_416_0_2_2

New Line.l(r:udm651-udt177lv) Units=km Length=0.007725060000000001 bus1=udt177lv.1.2 bus2=udm651.1.2 switch=n enabled=y phases=2 Linecode=1P_UG_AL_2/0_Converse_0_416_0_2_2

New Line.l(r:p1ulv233-udm653) Units=km Length=0.0111992 bus1=udm653.1.2 bus2=p1ulv233.1.2 switch=n enabled=y phases=2 Linecode=1P_UG_AL_1/0_Brenau_0_416_0_2_2

New Line.l(r:p1ulv234-udm653) Units=km Length=0.019065600000000002 bus1=udm653.1.2 bus2=p1ulv234.1.2 switch=n enabled=y phases=2 Linecode=1P_UG_AL_1/0_Brenau_0_416_0_2_2

New Line.l(r:udm653-udt178lv) Units=km Length=0.0456038 bus1=udt178lv.1.2 bus2=udm653.1.2 switch=n enabled=y phases=2 Linecode=1P_UG_AL_2/0_Converse_0_416_0_2_2

New Line.l(r:p1ulv2103-udm655) Units=km Length=0.018686 bus1=udm655.1.2 bus2=p1ulv2103.1.2 switch=n enabled=y phases=2 Linecode=1P_UG_AL_1/0_Brenau_0_416_0_2_2

New Line.l(r:p1ulv2104-udm656) Units=km Length=0.0244393 bus1=udm656.1.2 bus2=p1ulv2104.1.2 switch=n enabled=y phases=2 Linecode=1P_UG_AL_1/0_Brenau_0_416_0_2_2

New Line.l(r:udm655-udm656) Units=km Length=0.00534229 bus1=udm655.1.2 bus2=udm656.1.2 switch=n enabled=y phases=2 Linecode=1P_UG_AL_1/0_Brenau_0_416_0_2_2

New Line.l(r:udm655-udt178lv) Units=km Length=0.0114259 bus1=udt178lv.1.2 bus2=udm655.1.2 switch=n enabled=y phases=2 Linecode=1P_UG_AL_4/0_Sweetbriar_0_416_0_2_2

New Line.l(r:p1ulv271-udt179lv) Units=km Length=0.0142365 bus1=udt179lv.1.2 bus2=p1ulv271.1.2 switch=n enabled=y phases=2 Linecode=1P_UG_AL_1/0_Brenau_0_416_0_2_2

New Line.l(r:p1ulv272-udt179lv) Units=km Length=0.0221852 bus1=udt179lv.1.2 bus2=p1ulv272.1.2 switch=n enabled=y phases=2 Linecode=1P_UG_AL_1/0_Brenau_0_416_0_2_2

New Line.l(r:p1ulv235-udm657) Units=km Length=0.018831 bus1=udm657.1.2 bus2=p1ulv235.1.2 switch=n enabled=y phases=2 Linecode=1P_UG_AL_1/0_Brenau_0_416_0_2_2

New Line.l(r:p1ulv236-udm657) Units=km Length=0.010909100000000001 bus1=udm657.1.2 bus2=p1ulv236.1.2 switch=n enabled=y phases=2 Linecode=1P_UG_AL_1/0_Brenau_0_416_0_2_2

New Line.l(r:udm657-udt179lv) Units=km Length=0.017002600000000003 bus1=udt179lv.1.2 bus2=udm657.1.2 switch=n enabled=y phases=2 Linecode=1P_UG_AL_2/0_Converse_0_416_0_2_2

New Line.l(r:p1ulv270-udm659) Units=km Length=0.0111993 bus1=udm659.1.2 bus2=p1ulv270.1.2 switch=n enabled=y phases=2 Linecode=1P_UG_AL_1/0_Brenau_0_416_0_2_2

New Line.l(r:p1ulv273-udm659) Units=km Length=0.0195311 bus1=udm659.1.2 bus2=p1ulv273.1.2 switch=n enabled=y phases=2 Linecode=1P_UG_AL_1/0_Brenau_0_416_0_2_2

New Line.l(r:p1ulv274-udm663) Units=km Length=0.0172124 bus1=udm663.1.2 bus2=p1ulv274.1.2 switch=n enabled=y phases=2 Linecode=1P_UG_AL_2/0_Converse_0_416_0_2_2

New Line.l(r:udm659-udm663) Units=km Length=0.00665956 bus1=udm659.1.2 bus2=udm663.1.2 switch=n enabled=y phases=2 Linecode=1P_UG_AL_2/0_Converse_0_416_0_2_2

New Line.l(r:udm659-udt179lv) Units=km Length=0.00665324 bus1=udt179lv.1.2 bus2=udm659.1.2 switch=n enabled=y phases=2 Linecode=1P_UG_AL_4/0_Sweetbriar_0_416_0_2_2

New Line.l(r:p1ulv237-udt180lv) Units=km Length=0.0241238 bus1=udt180lv.1.2 bus2=p1ulv237.1.2 switch=n enabled=y phases=2 Linecode=1P_UG_AL_1/0_Brenau_0_416_0_2_2

New Line.l(r:p1ulv238-udt180lv) Units=km Length=0.024025 bus1=udt180lv.1.2 bus2=p1ulv238.1.2 switch=n enabled=y phases=2 Linecode=1P_UG_AL_4/0_Sweetbriar_0_416_0_2_2

New Line.l(r:p1ulv240-udt181lv) Units=km Length=0.0197295 bus1=udt181lv.1.2 bus2=p1ulv240.1.2 switch=n enabled=y phases=2 Linecode=1P_UG_AL_1/0_Brenau_0_416_0_2_2

New Line.l(r:p1ulv262-udt181lv) Units=km Length=0.0109949 bus1=udt181lv.1.2 bus2=p1ulv262.1.2 switch=n enabled=y phases=2 Linecode=1P_UG_AL_1/0_Brenau_0_416_0_2_2

New Line.l(r:p1ulv242-udt182lv) Units=km Length=0.0212927 bus1=udt182lv.1.2 bus2=p1ulv242.1.2 switch=n enabled=y phases=2 Linecode=1P_UG_AL_1/0_Brenau_0_416_0_2_2

New Line.l(r:p1ulv241-udm668) Units=km Length=0.0208827 bus1=udm668.1.2 bus2=p1ulv241.1.2 switch=n enabled=y phases=2 Linecode=1P_UG_AL_1/0_Brenau_0_416_0_2_2

New Line.l(r:udm668-udt182lv) Units=km Length=0.00937838 bus1=udt182lv.1.2 bus2=udm668.1.2 switch=n enabled=y phases=2 Linecode=1P_UG_AL_1/0_Brenau_0_416_0_2_2

New Line.l(r:p1ulv243-udm670) Units=km Length=0.0215879 bus1=udm670.1.2 bus2=p1ulv243.1.2 switch=n enabled=y phases=2 Linecode=1P_UG_AL_1/0_Brenau_0_416_0_2_2

New Line.l(r:udm670-udt182lv) Units=km Length=0.00937838 bus1=udt182lv.1.2 bus2=udm670.1.2 switch=n enabled=y phases=2 Linecode=1P_UG_AL_1/0_Brenau_0_416_0_2_2

New Line.l(r:p1ulv244-udt183lv) Units=km Length=0.01855 bus1=udt183lv.1.2 bus2=p1ulv244.1.2 switch=n enabled=y phases=2 Linecode=1P_UG_AL_2/0_Converse_0_416_0_2_2

New Line.l(r:p1ulv246-udt184lv) Units=km Length=0.0209661 bus1=udt184lv.1.2 bus2=p1ulv246.1.2 switch=n enabled=y phases=2 Linecode=1P_UG_AL_1/0_Brenau_0_416_0_2_2

New Line.l(r:p1ulv247-udt184lv) Units=km Length=0.019604 bus1=udt184lv.1.2 bus2=p1ulv247.1.2 switch=n enabled=y phases=2 Linecode=1P_UG_AL_1/0_Brenau_0_416_0_2_2

New Line.l(r:p1ulv245-udm672) Units=km Length=0.0213947 bus1=udm672.1.2 bus2=p1ulv245.1.2 switch=n enabled=y phases=2 Linecode=1P_UG_AL_1/0_Brenau_0_416_0_2_2

New Line.l(r:udm672-udt184lv) Units=km Length=0.0093771 bus1=udt184lv.1.2 bus2=udm672.1.2 switch=n enabled=y phases=2 Linecode=1P_UG_AL_1/0_Brenau_0_416_0_2_2

New Line.l(r:p1ulv248-udm675) Units=km Length=0.0186021 bus1=udm675.1.2 bus2=p1ulv248.1.2 switch=n enabled=y phases=2 Linecode=1P_UG_AL_1/0_Brenau_0_416_0_2_2

New Line.l(r:udm675-udt184lv) Units=km Length=0.00937838 bus1=udt184lv.1.2 bus2=udm675.1.2 switch=n enabled=y phases=2 Linecode=1P_UG_AL_1/0_Brenau_0_416_0_2_2

New Line.l(r:p1ulv249-udt185lv) Units=km Length=0.0222371 bus1=udt185lv.1.2 bus2=p1ulv249.1.2 switch=n enabled=y phases=2 Linecode=1P_UG_AL_4/0_Sweetbriar_0_416_0_2_2

New Line.l(r:p1ulv251-udt186lv) Units=km Length=0.022194 bus1=udt186lv.1.2 bus2=p1ulv251.1.2 switch=n enabled=y phases=2 Linecode=1P_UG_AL_2/0_Converse_0_416_0_2_2

New Line.l(r:p1ulv253-udm678) Units=km Length=0.0232204 bus1=udm678.1.2 bus2=p1ulv253.1.2 switch=n enabled=y phases=2 Linecode=1P_UG_AL_1/0_Brenau_0_416_0_2_2

New Line.l(r:udm678-udt186lv) Units=km Length=0.008899990000000002 bus1=udt186lv.1.2 bus2=udm678.1.2 switch=n enabled=y phases=2 Linecode=1P_UG_AL_1/0_Brenau_0_416_0_2_2

New Line.l(r:p1ulv255-udt188lv) Units=km Length=0.021629700000000005 bus1=udt188lv.1.2 bus2=p1ulv255.1.2 switch=n enabled=y phases=2 Linecode=1P_UG_AL_4/0_Sweetbriar_0_416_0_2_2

New Line.l(r:p1ulv257-udt189lv) Units=km Length=0.0151949 bus1=udt189lv.1.2 bus2=p1ulv257.1.2 switch=n enabled=y phases=2 Linecode=1P_UG_AL_1/0_Brenau_0_416_0_2_2

New Line.l(r:p1ulv256-udm681) Units=km Length=0.0172448 bus1=udm681.1.2 bus2=p1ulv256.1.2 switch=n enabled=y phases=2 Linecode=1P_UG_AL_1/0_Brenau_0_416_0_2_2

New Line.l(r:p1ulv259-udm684) Units=km Length=0.0196492 bus1=udm684.1.2 bus2=p1ulv259.1.2 switch=n enabled=y phases=2 Linecode=1P_UG_AL_1/0_Brenau_0_416_0_2_2

New Line.l(r:udm681-udm684) Units=km Length=0.007421540000000001 bus1=udm681.1.2 bus2=udm684.1.2 switch=n enabled=y phases=2 Linecode=1P_UG_AL_1/0_Brenau_0_416_0_2_2

New Line.l(r:udm681-udt189lv) Units=km Length=0.00742925 bus1=udt189lv.1.2 bus2=udm681.1.2 switch=n enabled=y phases=2 Linecode=1P_UG_AL_4/0_Sweetbriar_0_416_0_2_2

New Line.l(r:p1ulv258-udm683) Units=km Length=0.0128536 bus1=udm683.1.2 bus2=p1ulv258.1.2 switch=n enabled=y phases=2 Linecode=1P_UG_AL_1/0_Brenau_0_416_0_2_2

New Line.l(r:p1ulv2085-udm685) Units=km Length=0.0173695 bus1=udm685.1.2 bus2=p1ulv2085.1.2 switch=n enabled=y phases=2 Linecode=1P_UG_AL_1/0_Brenau_0_416_0_2_2

New Line.l(r:udm683-udm685) Units=km Length=0.0058298 bus1=udm683.1.2 bus2=udm685.1.2 switch=n enabled=y phases=2 Linecode=1P_UG_AL_1/0_Brenau_0_416_0_2_2

New Line.l(r:udm683-udt189lv) Units=km Length=0.0093333 bus1=udt189lv.1.2 bus2=udm683.1.2 switch=n enabled=y phases=2 Linecode=1P_UG_AL_4/0_Sweetbriar_0_416_0_2_2

New Line.l(r:p1ulv264-udt190lv) Units=km Length=0.00927407 bus1=udt190lv.1.2 bus2=p1ulv264.1.2 switch=n enabled=y phases=2 Linecode=1P_UG_AL_2/0_Converse_0_416_0_2_2

New Line.l(r:p1ulv266-udt190lv) Units=km Length=0.0183982 bus1=udt190lv.1.2 bus2=p1ulv266.1.2 switch=n enabled=y phases=2 Linecode=1P_UG_AL_2/0_Converse_0_416_0_2_2

New Line.l(r:p1ulv260-udm686) Units=km Length=0.0193294 bus1=udm686.1.2 bus2=p1ulv260.1.2 switch=n enabled=y phases=2 Linecode=1P_UG_AL_1/0_Brenau_0_416_0_2_2

New Line.l(r:p1ulv263-udm686) Units=km Length=0.0101138 bus1=udm686.1.2 bus2=p1ulv263.1.2 switch=n enabled=y phases=2 Linecode=1P_UG_AL_1/0_Brenau_0_416_0_2_2

New Line.l(r:p1ulv261-udm687) Units=km Length=0.020280900000000004 bus1=udm687.1.2 bus2=p1ulv261.1.2 switch=n enabled=y phases=2 Linecode=1P_UG_AL_1/0_Brenau_0_416_0_2_2

New Line.l(r:udm686-udm687) Units=km Length=0.00868664 bus1=udm686.1.2 bus2=udm687.1.2 switch=n enabled=y phases=2 Linecode=1P_UG_AL_1/0_Brenau_0_416_0_2_2

New Line.l(r:udm686-udt190lv) Units=km Length=0.00868199 bus1=udt190lv.1.2 bus2=udm686.1.2 switch=n enabled=y phases=2 Linecode=1P_UG_AL_4/0_Sweetbriar_0_416_0_2_2

New Line.l(r:p1ulv268-udt191lv) Units=km Length=0.00834653 bus1=udt191lv.1.2 bus2=p1ulv268.1.2 switch=n enabled=y phases=2 Linecode=1P_UG_AL_1/0_Brenau_0_416_0_2_2

New Line.l(r:p1ulv2101-udt192lv) Units=km Length=0.042230800000000006 bus1=udt192lv.1.2 bus2=p1ulv2101.1.2 switch=n enabled=y phases=2 Linecode=1P_UG_AL_1/0_Brenau_0_416_0_2_2

New Line.l(r:p1ulv2102-udt192lv) Units=km Length=0.0367059 bus1=udt192lv.1.2 bus2=p1ulv2102.1.2 switch=n enabled=y phases=2 Linecode=1P_UG_AL_1/0_Brenau_0_416_0_2_2

New Line.l(r:p1ulv276-udm692) Units=km Length=0.0229562 bus1=udm692.1.2 bus2=p1ulv276.1.2 switch=n enabled=y phases=2 Linecode=1P_UG_AL_1/0_Brenau_0_416_0_2_2

New Line.l(r:p1ulv277-udm692) Units=km Length=0.013717500000000002 bus1=udm692.1.2 bus2=p1ulv277.1.2 switch=n enabled=y phases=2 Linecode=1P_UG_AL_1/0_Brenau_0_416_0_2_2

New Line.l(r:p1ulv2070-udm692) Units=km Length=0.0158223 bus1=udm692.1.2 bus2=p1ulv2070.1.2 switch=n enabled=y phases=2 Linecode=1P_UG_AL_1/0_Brenau_0_416_0_2_2

New Line.l(r:udm692-udt192lv) Units=km Length=0.00739976 bus1=udt192lv.1.2 bus2=udm692.1.2 switch=n enabled=y phases=2 Linecode=1P_UG_AL_4/0_Sweetbriar_0_416_0_2_2

New Line.l(r:p1ulv279-udt193lv) Units=km Length=0.00886815 bus1=udt193lv.1.2 bus2=p1ulv279.1.2 switch=n enabled=y phases=2 Linecode=1P_UG_AL_1/0_Brenau_0_416_0_2_2

New Line.l(r:p1ulv2060-udt193lv) Units=km Length=0.024007100000000003 bus1=udt193lv.1.2 bus2=p1ulv2060.1.2 switch=n enabled=y phases=2 Linecode=1P_UG_AL_1/0_Brenau_0_416_0_2_2

New Line.l(r:p1ulv280-udm699) Units=km Length=0.00411637 bus1=udm699.1.2 bus2=p1ulv280.1.2 switch=n enabled=y phases=2 Linecode=1P_UG_AL_1/0_Brenau_0_416_0_2_2

New Line.l(r:p1ulv281-udm700) Units=km Length=0.0110253 bus1=udm700.1.2 bus2=p1ulv281.1.2 switch=n enabled=y phases=2 Linecode=1P_UG_AL_1/0_Brenau_0_416_0_2_2

New Line.l(r:udm699-udm700) Units=km Length=0.00919753 bus1=udm699.1.2 bus2=udm700.1.2 switch=n enabled=y phases=2 Linecode=1P_UG_AL_1/0_Brenau_0_416_0_2_2

New Line.l(r:udm699-udt193lv) Units=km Length=0.00971072 bus1=udt193lv.1.2 bus2=udm699.1.2 switch=n enabled=y phases=2 Linecode=1P_UG_AL_1/0_Brenau_0_416_0_2_2

New Line.l(r:p1ulv2058-udm702) Units=km Length=0.0190365 bus1=udm702.1.2 bus2=p1ulv2058.1.2 switch=n enabled=y phases=2 Linecode=1P_UG_AL_1/0_Brenau_0_416_0_2_2

New Line.l(r:p1ulv2059-udm702) Units=km Length=0.0202959 bus1=udm702.1.2 bus2=p1ulv2059.1.2 switch=n enabled=y phases=2 Linecode=1P_UG_AL_1/0_Brenau_0_416_0_2_2

New Line.l(r:p1ulv278-udm697) Units=km Length=0.0127942 bus1=udm697.1.2 bus2=p1ulv278.1.2 switch=n enabled=y phases=2 Linecode=1P_UG_AL_1/0_Brenau_0_416_0_2_2

New Line.l(r:p1ulv283-udm697) Units=km Length=0.0220656 bus1=udm697.1.2 bus2=p1ulv283.1.2 switch=n enabled=y phases=2 Linecode=1P_UG_AL_1/0_Brenau_0_416_0_2_2

New Line.l(r:udm697-udm702) Units=km Length=0.00909351 bus1=udm702.1.2 bus2=udm697.1.2 switch=n enabled=y phases=2 Linecode=1P_UG_AL_2/0_Converse_0_416_0_2_2

New Line.l(r:udm702-udt193lv) Units=km Length=0.00685169 bus1=udt193lv.1.2 bus2=udm702.1.2 switch=n enabled=y phases=2 Linecode=1P_UG_AL_4/0_Sweetbriar_0_416_0_2_2

New Line.l(r:p1ulv282-udt194lv) Units=km Length=0.0165353 bus1=udt194lv.1.2 bus2=p1ulv282.1.2 switch=n enabled=y phases=2 Linecode=1P_UG_AL_1/0_Brenau_0_416_0_2_2

New Line.l(r:p1ulv2062-udm706) Units=km Length=0.0264361 bus1=udm706.1.2 bus2=p1ulv2062.1.2 switch=n enabled=y phases=2 Linecode=1P_UG_AL_1/0_Brenau_0_416_0_2_2

New Line.l(r:udm706-udt194lv) Units=km Length=0.048904 bus1=udt194lv.1.2 bus2=udm706.1.2 switch=n enabled=y phases=2 Linecode=1P_UG_AL_1/0_Brenau_0_416_0_2_2

New Line.l(r:p1ulv325-udt203lv) Units=km Length=0.048681100000000005 bus1=udt203lv.1.2 bus2=p1ulv325.1.2 switch=n enabled=y phases=2 Linecode=1P_OH_AL_4/0_Zuzara_0_416_0_2_2

New Line.l(r:p1ulv2035-udm4388) Units=km Length=0.014087400000000002 bus1=udm4388.1.2 bus2=p1ulv2035.1.2 switch=n enabled=y phases=2 Linecode=1P_UG_AL_1/0_Brenau_0_416_0_2_2

New Line.l(r:p1ulv2028-udm4386) Units=km Length=0.0143862 bus1=udm4386.1.2 bus2=p1ulv2028.1.2 switch=n enabled=y phases=2 Linecode=1P_UG_AL_4/0_Sweetbriar_0_416_0_2_2

New Line.l(r:p1ulv2034-udm4387) Units=km Length=0.014343600000000001 bus1=udm4387.1.2 bus2=p1ulv2034.1.2 switch=n enabled=y phases=2 Linecode=1P_UG_AL_1/0_Brenau_0_416_0_2_2

New Line.l(r:udm4386-udm4387) Units=km Length=0.008891270000000001 bus1=udm4386.1.2 bus2=udm4387.1.2 switch=n enabled=y phases=2 Linecode=1P_UG_AL_1/0_Brenau_0_416_0_2_2

New Line.l(r:udm4386-udm4388) Units=km Length=0.0177624 bus1=udm4388.1.2 bus2=udm4386.1.2 switch=n enabled=y phases=2 Linecode=1P_UG_AL_4/0_Sweetbriar_0_416_0_2_2

New Line.l(r:udm4388-udt1074lv) Units=km Length=0.0088811 bus1=udt1074lv.1.2 bus2=udm4388.1.2 switch=n enabled=y phases=2 Linecode=1P_UG_AL_4/0_Sweetbriar_0_416_0_2_2

New Line.l(r:p1ulv14056-udm4390) Units=km Length=0.0195303 bus1=udm4390.1.2 bus2=p1ulv14056.1.2 switch=n enabled=y phases=2 Linecode=1P_OH_AL_2/0_Rucina_0_416_0_2_2

New Line.l(r:p1ulv3263-udm4389) Units=km Length=0.0391386 bus1=udm4389.1.2 bus2=p1ulv3263.1.2 switch=n enabled=y phases=2 Linecode=1P_OH_AL_4/0_Zuzara_0_416_0_2_2

New Line.l(r:p1ulv20431-udm4389) Units=km Length=0.013163 bus1=udm4389.1.2 bus2=p1ulv20431.1.2 switch=n enabled=y phases=2 Linecode=1P_OH_AL_2/0_Rucina_0_416_0_2_2

New Line.l(r:udm4389-udm4390) Units=km Length=0.05805660000000001 bus1=udm4390.1.2 bus2=udm4389.1.2 switch=n enabled=y phases=2 Linecode=1P_OH_AL_4/0_Zuzara_0_416_0_2_2

New Line.l(r:udm4390-udt1074lv) Units=km Length=0.0177624 bus1=udt1074lv.1.2 bus2=udm4390.1.2 switch=n enabled=y phases=2 Linecode=1P_OH_AL_2/0_Rucina_0_416_0_2_2

New Line.l(r:p1ulv2031-udm4393) Units=km Length=0.0122747 bus1=udm4393.1.2 bus2=p1ulv2031.1.2 switch=n enabled=y phases=2 Linecode=1P_UG_AL_1/0_Brenau_0_416_0_2_2

New Line.l(r:p1ulv2030-udm4392) Units=km Length=0.016358 bus1=udm4392.1.2 bus2=p1ulv2030.1.2 switch=n enabled=y phases=2 Linecode=1P_UG_AL_1/0_Brenau_0_416_0_2_2

New Line.l(r:p1ulv2033-udm4392) Units=km Length=0.0151951 bus1=udm4392.1.2 bus2=p1ulv2033.1.2 switch=n enabled=y phases=2 Linecode=1P_UG_AL_1/0_Brenau_0_416_0_2_2

New Line.l(r:p1ulv2032-udm4394) Units=km Length=0.012792 bus1=udm4394.1.2 bus2=p1ulv2032.1.2 switch=n enabled=y phases=2 Linecode=1P_UG_AL_1/0_Brenau_0_416_0_2_2

New Line.l(r:udm4392-udm4394) Units=km Length=0.008166280000000001 bus1=udm4392.1.2 bus2=udm4394.1.2 switch=n enabled=y phases=2 Linecode=1P_UG_AL_1/0_Brenau_0_416_0_2_2

New Line.l(r:udm4392-udm4393) Units=km Length=0.008166280000000001 bus1=udm4393.1.2 bus2=udm4392.1.2 switch=n enabled=y phases=2 Linecode=1P_UG_AL_4/0_Sweetbriar_0_416_0_2_2

New Line.l(r:udm4393-udt1075lv) Units=km Length=0.0088811 bus1=udt1075lv.1.2 bus2=udm4393.1.2 switch=n enabled=y phases=2 Linecode=1P_UG_AL_4/0_Sweetbriar_0_416_0_2_2

New Line.l(r:p1ulv25794-udm4396) Units=km Length=0.0226998 bus1=udm4396.1.2 bus2=p1ulv25794.1.2 switch=n enabled=y phases=2 Linecode=1P_OH_AL_2/0_Rucina_0_416_0_2_2

New Line.l(r:udm4396-udt1075lv) Units=km Length=0.0803633 bus1=udt1075lv.1.2 bus2=udm4396.1.2 switch=n enabled=y phases=2 Linecode=1P_OH_AL_4/0_Zuzara_0_416_0_2_2

New Line.l(r:p1ulv2036-udt1076lv) Units=km Length=0.0221907 bus1=udt1076lv.1.2 bus2=p1ulv2036.1.2 switch=n enabled=y phases=2 Linecode=1P_UG_AL_4/0_Sweetbriar_0_416_0_2_2

New Line.l(r:p1ulv2038-udt1076lv) Units=km Length=0.0187863 bus1=udt1076lv.1.2 bus2=p1ulv2038.1.2 switch=n enabled=y phases=2 Linecode=1P_UG_AL_4/0_Sweetbriar_0_416_0_2_2

New Line.l(r:p1ulv2040-udt1077lv) Units=km Length=0.019782 bus1=udt1077lv.1.2 bus2=p1ulv2040.1.2 switch=n enabled=y phases=2 Linecode=1P_UG_AL_1/0_Brenau_0_416_0_2_2

New Line.l(r:p1ulv2041-udt1077lv) Units=km Length=0.0186912 bus1=udt1077lv.1.2 bus2=p1ulv2041.1.2 switch=n enabled=y phases=2 Linecode=1P_UG_AL_4/0_Sweetbriar_0_416_0_2_2

New Line.l(r:p1ulv2043-udm4401) Units=km Length=0.0197005 bus1=udm4401.1.2 bus2=p1ulv2043.1.2 switch=n enabled=y phases=2 Linecode=1P_UG_AL_1/0_Brenau_0_416_0_2_2

New Line.l(r:udm4401-udt1077lv) Units=km Length=0.00490698 bus1=udt1077lv.1.2 bus2=udm4401.1.2 switch=n enabled=y phases=2 Linecode=1P_UG_AL_1/0_Brenau_0_416_0_2_2

New Line.l(r:p1ulv18102-udm4402) Units=km Length=0.0540983 bus1=udm4402.1.2 bus2=p1ulv18102.1.2 switch=n enabled=y phases=2 Linecode=1P_UG_AL_1/0_Brenau_0_416_0_2_2

New Line.l(r:udm4402-udt1077lv) Units=km Length=0.00558813 bus1=udt1077lv.1.2 bus2=udm4402.1.2 switch=n enabled=y phases=2 Linecode=1P_UG_AL_1/0_Brenau_0_416_0_2_2

New Line.l(r:p1ulv2133-udt1078lv) Units=km Length=0.0319003 bus1=udt1078lv.1.2 bus2=p1ulv2133.1.2 switch=n enabled=y phases=2 Linecode=1P_UG_AL_2/0_Converse_0_416_0_2_2

New Line.l(r:p1ulv2134-udt1078lv) Units=km Length=0.0249328 bus1=udt1078lv.1.2 bus2=p1ulv2134.1.2 switch=n enabled=y phases=2 Linecode=1P_UG_AL_2/0_Converse_0_416_0_2_2

New Line.l(r:p1ulv2045-udm4404) Units=km Length=0.0226834 bus1=udm4404.1.2 bus2=p1ulv2045.1.2 switch=n enabled=y phases=2 Linecode=1P_UG_AL_1/0_Brenau_0_416_0_2_2

New Line.l(r:p1ulv2044-udm4403) Units=km Length=0.0210233 bus1=udm4403.1.2 bus2=p1ulv2044.1.2 switch=n enabled=y phases=2 Linecode=1P_UG_AL_1/0_Brenau_0_416_0_2_2

New Line.l(r:udm4403-udm4404) Units=km Length=0.0068334 bus1=udm4404.1.2 bus2=udm4403.1.2 switch=n enabled=y phases=2 Linecode=1P_UG_AL_1/0_Brenau_0_416_0_2_2

New Line.l(r:udm4404-udt1078lv) Units=km Length=0.00747767 bus1=udt1078lv.1.2 bus2=udm4404.1.2 switch=n enabled=y phases=2 Linecode=1P_UG_AL_4/0_Sweetbriar_0_416_0_2_2

New Line.l(r:p1ulv2138-udm4407) Units=km Length=0.01658 bus1=udm4407.1.2 bus2=p1ulv2138.1.2 switch=n enabled=y phases=2 Linecode=1P_UG_AL_1/0_Brenau_0_416_0_2_2

New Line.l(r:udm4407-udt1078lv) Units=km Length=0.00486864 bus1=udt1078lv.1.2 bus2=udm4407.1.2 switch=n enabled=y phases=2 Linecode=1P_UG_AL_1/0_Brenau_0_416_0_2_2

New Line.l(r:p1ulv2047-udt1079lv) Units=km Length=0.0112559 bus1=udt1079lv.1.2 bus2=p1ulv2047.1.2 switch=n enabled=y phases=2 Linecode=1P_UG_AL_1/0_Brenau_0_416_0_2_2

New Line.l(r:p1ulv2046-udm4408) Units=km Length=0.011234900000000003 bus1=udm4408.1.2 bus2=p1ulv2046.1.2 switch=n enabled=y phases=2 Linecode=1P_UG_AL_4/0_Sweetbriar_0_416_0_2_2

New Line.l(r:udm4408-udt1079lv) Units=km Length=0.00896643 bus1=udt1079lv.1.2 bus2=udm4408.1.2 switch=n enabled=y phases=2 Linecode=1P_UG_AL_4/0_Sweetbriar_0_416_0_2_2

New Line.l(r:p1ulv2048-udm4410) Units=km Length=0.0111836 bus1=udm4410.1.2 bus2=p1ulv2048.1.2 switch=n enabled=y phases=2 Linecode=1P_UG_AL_1/0_Brenau_0_416_0_2_2

New Line.l(r:udm4410-udt1079lv) Units=km Length=0.00896458 bus1=udt1079lv.1.2 bus2=udm4410.1.2 switch=n enabled=y phases=2 Linecode=1P_UG_AL_1/0_Brenau_0_416_0_2_2

New Line.l(r:p1ulv2049-udm4411) Units=km Length=0.0112939 bus1=udm4411.1.2 bus2=p1ulv2049.1.2 switch=n enabled=y phases=2 Linecode=1P_UG_AL_1/0_Brenau_0_416_0_2_2

New Line.l(r:p1ulv2050-udm4411) Units=km Length=0.012238500000000001 bus1=udm4411.1.2 bus2=p1ulv2050.1.2 switch=n enabled=y phases=2 Linecode=1P_UG_AL_2/0_Converse_0_416_0_2_2

New Line.l(r:udm4411-udt1080lv) Units=km Length=0.0179292 bus1=udt1080lv.1.2 bus2=udm4411.1.2 switch=n enabled=y phases=2 Linecode=1P_UG_AL_4/0_Sweetbriar_0_416_0_2_2

New Line.l(r:p1ulv2055-udm4413) Units=km Length=0.0175051 bus1=udm4413.1.2 bus2=p1ulv2055.1.2 switch=n enabled=y phases=2 Linecode=1P_UG_AL_1/0_Brenau_0_416_0_2_2

New Line.l(r:udm4413-udt1080lv) Units=km Length=0.0273179 bus1=udt1080lv.1.2 bus2=udm4413.1.2 switch=n enabled=y phases=2 Linecode=1P_UG_AL_1/0_Brenau_0_416_0_2_2

New Line.l(r:p1ulv2052-udt1081lv) Units=km Length=0.0201674 bus1=udt1081lv.1.2 bus2=p1ulv2052.1.2 switch=n enabled=y phases=2 Linecode=1P_UG_AL_1/0_Brenau_0_416_0_2_2

New Line.l(r:p1ulv2053-udm4415) Units=km Length=0.0193632 bus1=udm4415.1.2 bus2=p1ulv2053.1.2 switch=n enabled=y phases=2 Linecode=1P_UG_AL_1/0_Brenau_0_416_0_2_2

New Line.l(r:p1ulv2054-udm4416) Units=km Length=0.0187794 bus1=udm4416.1.2 bus2=p1ulv2054.1.2 switch=n enabled=y phases=2 Linecode=1P_UG_AL_1/0_Brenau_0_416_0_2_2

New Line.l(r:p1ulv2067-udm4417) Units=km Length=0.0160847 bus1=udm4417.1.2 bus2=p1ulv2067.1.2 switch=n enabled=y phases=2 Linecode=1P_UG_AL_1/0_Brenau_0_416_0_2_2

New Line.l(r:udm4416-udm4417) Units=km Length=0.00665391 bus1=udm4416.1.2 bus2=udm4417.1.2 switch=n enabled=y phases=2 Linecode=1P_UG_AL_1/0_Brenau_0_416_0_2_2

New Line.l(r:udm4415-udm4416) Units=km Length=0.00665388 bus1=udm4415.1.2 bus2=udm4416.1.2 switch=n enabled=y phases=2 Linecode=1P_UG_AL_4/0_Sweetbriar_0_416_0_2_2

New Line.l(r:udm4415-udt1081lv) Units=km Length=0.00774282 bus1=udt1081lv.1.2 bus2=udm4415.1.2 switch=n enabled=y phases=2 Linecode=1P_UG_AL_4/0_Sweetbriar_0_416_0_2_2

New Line.l(r:p1ulv2131-udm4418) Units=km Length=0.0291982 bus1=udm4418.1.2 bus2=p1ulv2131.1.2 switch=n enabled=y phases=2 Linecode=1P_UG_AL_1/0_Brenau_0_416_0_2_2

New Line.l(r:udm4418-udt1081lv) Units=km Length=0.0648705 bus1=udt1081lv.1.2 bus2=udm4418.1.2 switch=n enabled=y phases=2 Linecode=1P_UG_AL_1/0_Brenau_0_416_0_2_2

New Line.l(r:p1ulv2056-udt1082lv) Units=km Length=0.018521000000000003 bus1=udt1082lv.1.2 bus2=p1ulv2056.1.2 switch=n enabled=y phases=2 Linecode=1P_UG_AL_4/0_Sweetbriar_0_416_0_2_2

New Line.l(r:p1ulv2061-udt1083lv) Units=km Length=0.0264012 bus1=udt1083lv.1.2 bus2=p1ulv2061.1.2 switch=n enabled=y phases=2 Linecode=1P_UG_AL_1/0_Brenau_0_416_0_2_2

New Line.l(r:p1ulv2063-udt1084lv) Units=km Length=0.0146743 bus1=udt1084lv.1.2 bus2=p1ulv2063.1.2 switch=n enabled=y phases=2 Linecode=1P_UG_AL_1/0_Brenau_0_416_0_2_2

New Line.l(r:p1ulv2064-udt1084lv) Units=km Length=0.0142981 bus1=udt1084lv.1.2 bus2=p1ulv2064.1.2 switch=n enabled=y phases=2 Linecode=1P_UG_AL_1/0_Brenau_0_416_0_2_2

New Line.l(r:p1ulv2065-udm4423) Units=km Length=0.013474 bus1=udm4423.1.2 bus2=p1ulv2065.1.2 switch=n enabled=y phases=2 Linecode=1P_UG_AL_1/0_Brenau_0_416_0_2_2

New Line.l(r:udm4423-udt1084lv) Units=km Length=0.0084347 bus1=udt1084lv.1.2 bus2=udm4423.1.2 switch=n enabled=y phases=2 Linecode=1P_UG_AL_1/0_Brenau_0_416_0_2_2

New Line.l(r:p1ulv2066-udm4424) Units=km Length=0.0149263 bus1=udm4424.1.2 bus2=p1ulv2066.1.2 switch=n enabled=y phases=2 Linecode=1P_UG_AL_1/0_Brenau_0_416_0_2_2

New Line.l(r:p1ulv2068-udm4425) Units=km Length=0.0155336 bus1=udm4425.1.2 bus2=p1ulv2068.1.2 switch=n enabled=y phases=2 Linecode=1P_UG_AL_1/0_Brenau_0_416_0_2_2

New Line.l(r:udm4424-udm4425) Units=km Length=0.00844015 bus1=udm4424.1.2 bus2=udm4425.1.2 switch=n enabled=y phases=2 Linecode=1P_UG_AL_1/0_Brenau_0_416_0_2_2

New Line.l(r:udm4424-udt1084lv) Units=km Length=0.00844015 bus1=udt1084lv.1.2 bus2=udm4424.1.2 switch=n enabled=y phases=2 Linecode=1P_UG_AL_2/0_Converse_0_416_0_2_2

New Line.l(r:p1ulv2071-udt1085lv) Units=km Length=0.0158212 bus1=udt1085lv.1.2 bus2=p1ulv2071.1.2 switch=n enabled=y phases=2 Linecode=1P_UG_AL_1/0_Brenau_0_416_0_2_2
