New Line.l(r:p1ulv45342-udt218lv) Units=km Length=0.0153154 bus1=udt218lv.1.2 bus2=p1ulv45342.1.2 switch=n enabled=y phases=2 Linecode=1P_UG_AL_1/0_Brenau_0_416_0_2_2

New Line.l(r:p1ulv52759-udm809) Units=km Length=0.0159176 bus1=udm809.1.2 bus2=p1ulv52759.1.2 switch=n enabled=y phases=2 Linecode=1P_UG_AL_1/0_Brenau_0_416_0_2_2

New Line.l(r:p1ulv51681-udm807) Units=km Length=0.0161171 bus1=udm807.1.2 bus2=p1ulv51681.1.2 switch=n enabled=y phases=2 Linecode=1P_UG_AL_1/0_Brenau_0_416_0_2_2

New Line.l(r:p1ulv51987-udm808) Units=km Length=0.0170684 bus1=udm808.1.2 bus2=p1ulv51987.1.2 switch=n enabled=y phases=2 Linecode=1P_OH_AL_2/0_Rucina_0_416_0_2_2

New Line.l(r:udm807-udm808) Units=km Length=0.0875309 bus1=udm807.1.2 bus2=udm808.1.2 switch=n enabled=y phases=2 Linecode=1P_OH_AL_4/0_Zuzara_0_416_0_2_2

New Line.l(r:udm807-udm809) Units=km Length=0.00983708 bus1=udm809.1.2 bus2=udm807.1.2 switch=n enabled=y phases=2 Linecode=1P_UG_AL_1/0_Brenau_0_416_0_2_2

New Line.l(r:udm809-udt218lv) Units=km Length=0.0098441 bus1=udt218lv.1.2 bus2=udm809.1.2 switch=n enabled=y phases=2 Linecode=1P_UG_AL_2/0_Converse_0_416_0_2_2

New Line.l(r:p1ulv59918-udm810) Units=km Length=0.016529 bus1=udm810.1.2 bus2=p1ulv59918.1.2 switch=n enabled=y phases=2 Linecode=1P_UG_AL_1/0_Brenau_0_416_0_2_2

New Line.l(r:p1ulv345-udm804) Units=km Length=0.01737 bus1=udm804.1.2 bus2=p1ulv345.1.2 switch=n enabled=y phases=2 Linecode=1P_UG_AL_1/0_Brenau_0_416_0_2_2

New Line.l(r:p1ulv51177-udm804) Units=km Length=0.0162768 bus1=udm804.1.2 bus2=p1ulv51177.1.2 switch=n enabled=y phases=2 Linecode=1P_UG_AL_1/0_Brenau_0_416_0_2_2

New Line.l(r:udm804-udm810) Units=km Length=0.00983708 bus1=udm810.1.2 bus2=udm804.1.2 switch=n enabled=y phases=2 Linecode=1P_UG_AL_1/0_Brenau_0_416_0_2_2

New Line.l(r:udm810-udt218lv) Units=km Length=0.00984673 bus1=udt218lv.1.2 bus2=udm810.1.2 switch=n enabled=y phases=2 Linecode=1P_UG_AL_2/0_Converse_0_416_0_2_2

New Line.l(r:p1ulv346-udt219lv) Units=km Length=0.0121446 bus1=udt219lv.1.2 bus2=p1ulv346.1.2 switch=n enabled=y phases=2 Linecode=1P_UG_AL_1/0_Brenau_0_416_0_2_2

New Line.l(r:p1ulv40349-udm812) Units=km Length=0.0315007 bus1=udm812.1.2 bus2=p1ulv40349.1.2 switch=n enabled=y phases=2 Linecode=1P_UG_AL_1/0_Brenau_0_416_0_2_2

New Line.l(r:udm812-udt219lv) Units=km Length=0.00967207 bus1=udt219lv.1.2 bus2=udm812.1.2 switch=n enabled=y phases=2 Linecode=1P_UG_AL_1/0_Brenau_0_416_0_2_2

New Line.l(r:p1ulv54008-udm813) Units=km Length=0.0150085 bus1=udm813.1.2 bus2=p1ulv54008.1.2 switch=n enabled=y phases=2 Linecode=1P_UG_AL_1/0_Brenau_0_416_0_2_2

New Line.l(r:udm813-udt219lv) Units=km Length=0.00967207 bus1=udt219lv.1.2 bus2=udm813.1.2 switch=n enabled=y phases=2 Linecode=1P_UG_AL_1/0_Brenau_0_416_0_2_2

New Line.l(r:p1ulv348-udm817) Units=km Length=0.0134053 bus1=udm817.1.2 bus2=p1ulv348.1.2 switch=n enabled=y phases=2 Linecode=1P_UG_AL_1/0_Brenau_0_416_0_2_2

New Line.l(r:udm817-udt221lv) Units=km Length=0.00948166 bus1=udt221lv.1.2 bus2=udm817.1.2 switch=n enabled=y phases=2 Linecode=1P_UG_AL_1/0_Brenau_0_416_0_2_2

New Line.l(r:p1ulv56609-udm818) Units=km Length=0.0182774 bus1=udm818.1.2 bus2=p1ulv56609.1.2 switch=n enabled=y phases=2 Linecode=1P_UG_AL_1/0_Brenau_0_416_0_2_2

New Line.l(r:udm818-udt221lv) Units=km Length=0.00949164 bus1=udt221lv.1.2 bus2=udm818.1.2 switch=n enabled=y phases=2 Linecode=1P_UG_AL_1/0_Brenau_0_416_0_2_2

New Line.l(r:p1ulv354-udm835) Units=km Length=0.014623 bus1=udm835.1.2 bus2=p1ulv354.1.2 switch=n enabled=y phases=2 Linecode=1P_UG_AL_4/0_Sweetbriar_0_416_0_2_2

New Line.l(r:udm835-udt225lv) Units=km Length=0.028240200000000003 bus1=udt225lv.1.2 bus2=udm835.1.2 switch=n enabled=y phases=2 Linecode=1P_UG_AL_4/0_Sweetbriar_0_416_0_2_2

New Line.l(r:p1ulv56086-udm836) Units=km Length=0.023302500000000004 bus1=udm836.1.2 bus2=p1ulv56086.1.2 switch=n enabled=y phases=2 Linecode=1P_UG_AL_1/0_Brenau_0_416_0_2_2

New Line.l(r:udm836-udt225lv) Units=km Length=0.0371337 bus1=udt225lv.1.2 bus2=udm836.1.2 switch=n enabled=y phases=2 Linecode=1P_UG_AL_1/0_Brenau_0_416_0_2_2

New Line.l(r:p1ulv355-udt226lv) Units=km Length=0.020948600000000005 bus1=udt226lv.1.2 bus2=p1ulv355.1.2 switch=n enabled=y phases=2 Linecode=1P_OH_AL_2/0_Rucina_0_416_0_2_2

New Line.l(r:p1ulv52941-udm838) Units=km Length=0.0260403 bus1=udm838.1.2 bus2=p1ulv52941.1.2 switch=n enabled=y phases=2 Linecode=1P_OH_AL_2/0_Rucina_0_416_0_2_2

New Line.l(r:udm838-udt226lv) Units=km Length=0.039793 bus1=udt226lv.1.2 bus2=udm838.1.2 switch=n enabled=y phases=2 Linecode=1P_OH_AL_4/0_Zuzara_0_416_0_2_2

New Line.l(r:p1ulv56541-udm839) Units=km Length=0.0132143 bus1=udm839.1.2 bus2=p1ulv56541.1.2 switch=n enabled=y phases=2 Linecode=1P_OH_AL_2/0_Rucina_0_416_0_2_2

New Line.l(r:udm839-udt226lv) Units=km Length=0.0199014 bus1=udt226lv.1.2 bus2=udm839.1.2 switch=n enabled=y phases=2 Linecode=1P_OH_AL_2/0_Rucina_0_416_0_2_2

New Line.l(r:p1ulv359-udt229lv) Units=km Length=0.0246783 bus1=udt229lv.1.2 bus2=p1ulv359.1.2 switch=n enabled=y phases=2 Linecode=1P_OH_AL_2/0_Rucina_0_416_0_2_2

New Line.l(r:p1ulv53369-udt229lv) Units=km Length=0.0175985 bus1=udt229lv.1.2 bus2=p1ulv53369.1.2 switch=n enabled=y phases=2 Linecode=1P_OH_AL_2/0_Rucina_0_416_0_2_2

New Line.l(r:p1ulv57361-udm850) Units=km Length=0.021203400000000004 bus1=udm850.1.2 bus2=p1ulv57361.1.2 switch=n enabled=y phases=2 Linecode=1P_OH_AL_2/0_Rucina_0_416_0_2_2

New Line.l(r:p1ulv60161-udm850) Units=km Length=0.0141011 bus1=udm850.1.2 bus2=p1ulv60161.1.2 switch=n enabled=y phases=2 Linecode=1P_OH_AL_2/0_Rucina_0_416_0_2_2

New Line.l(r:udm850-udt229lv) Units=km Length=0.0199014 bus1=udt229lv.1.2 bus2=udm850.1.2 switch=n enabled=y phases=2 Linecode=1P_OH_AL_2/0_Rucina_0_416_0_2_0_2

New Line.l(r:p1ulv360-udm852) Units=km Length=0.0391483 bus1=udm852.1.2 bus2=p1ulv360.1.2 switch=n enabled=y phases=2 Linecode=1P_UG_AL_1/0_Brenau_0_416_0_2_2

New Line.l(r:udm852-udt230lv) Units=km Length=0.0197963 bus1=udt230lv.1.2 bus2=udm852.1.2 switch=n enabled=y phases=2 Linecode=1P_UG_AL_1/0_Brenau_0_416_0_2_2

New Line.l(r:p1ulv369-udm853) Units=km Length=0.0402756 bus1=udm853.1.2 bus2=p1ulv369.1.2 switch=n enabled=y phases=2 Linecode=1P_UG_AL_1/0_Brenau_0_416_0_2_2

New Line.l(r:p1ulv53941-udm853) Units=km Length=0.0375884 bus1=udm853.1.2 bus2=p1ulv53941.1.2 switch=n enabled=y phases=2 Linecode=1P_UG_AL_1/0_Brenau_0_416_0_2_2

New Line.l(r:udm853-udt230lv) Units=km Length=0.00990316 bus1=udt230lv.1.2 bus2=udm853.1.2 switch=n enabled=y phases=2 Linecode=1P_UG_AL_1/0_Brenau_0_416_0_2_2

New Line.l(r:p1ulv361-udt231lv) Units=km Length=0.0195541 bus1=udt231lv.1.2 bus2=p1ulv361.1.2 switch=n enabled=y phases=2 Linecode=1P_UG_AL_1/0_Brenau_0_416_0_2_2

New Line.l(r:p1ulv363-udm856) Units=km Length=0.0195018 bus1=udm856.1.2 bus2=p1ulv363.1.2 switch=n enabled=y phases=2 Linecode=1P_UG_AL_1/0_Brenau_0_416_0_2_2

New Line.l(r:p1ulv41468-udm857) Units=km Length=0.0200004 bus1=udm857.1.2 bus2=p1ulv41468.1.2 switch=n enabled=y phases=2 Linecode=1P_UG_AL_1/0_Brenau_0_416_0_2_2

New Line.l(r:udm856-udm857) Units=km Length=0.0396267 bus1=udm856.1.2 bus2=udm857.1.2 switch=n enabled=y phases=2 Linecode=1P_UG_AL_1/0_Brenau_0_416_0_2_2

New Line.l(r:udm856-udt231lv) Units=km Length=0.00991134 bus1=udt231lv.1.2 bus2=udm856.1.2 switch=n enabled=y phases=2 Linecode=1P_UG_AL_1/0_Brenau_0_416_0_2_2

New Line.l(r:p1ulv59978-udm859) Units=km Length=0.0488226 bus1=udm859.1.2 bus2=p1ulv59978.1.2 switch=n enabled=y phases=2 Linecode=1P_UG_AL_1/0_Brenau_0_416_0_2_2

New Line.l(r:p1ulv56021-udm858) Units=km Length=0.0159629 bus1=udm858.1.2 bus2=p1ulv56021.1.2 switch=n enabled=y phases=2 Linecode=1P_UG_AL_1/0_Brenau_0_416_0_2_2

New Line.l(r:udm858-udm859) Units=km Length=0.009901360000000001 bus1=udm859.1.2 bus2=udm858.1.2 switch=n enabled=y phases=2 Linecode=1P_UG_AL_1/0_Brenau_0_416_0_2_2

New Line.l(r:udm859-udt231lv) Units=km Length=0.029725400000000003 bus1=udt231lv.1.2 bus2=udm859.1.2 switch=n enabled=y phases=2 Linecode=1P_UG_AL_4/0_Sweetbriar_0_416_0_2_2

New Line.l(r:p1ulv362-udt232lv) Units=km Length=0.0157214 bus1=udt232lv.1.2 bus2=p1ulv362.1.2 switch=n enabled=y phases=2 Linecode=1P_UG_AL_1/0_Brenau_0_416_0_2_2

New Line.l(r:p1ulv3736-udt232lv) Units=km Length=0.0254225 bus1=udt232lv.1.2 bus2=p1ulv3736.1.2 switch=n enabled=y phases=2 Linecode=1P_UG_AL_1/0_Brenau_0_416_0_2_2

New Line.l(r:p1ulv3750-udt232lv) Units=km Length=0.0510788 bus1=udt232lv.1.2 bus2=p1ulv3750.1.2 switch=n enabled=y phases=2 Linecode=1P_UG_AL_1/0_Brenau_0_416_0_2_2

New Line.l(r:p1ulv3737-udm862) Units=km Length=0.0260099 bus1=udm862.1.2 bus2=p1ulv3737.1.2 switch=n enabled=y phases=2 Linecode=1P_UG_AL_2/0_Converse_0_416_0_2_2

New Line.l(r:udm862-udt232lv) Units=km Length=0.00889089 bus1=udt232lv.1.2 bus2=udm862.1.2 switch=n enabled=y phases=2 Linecode=1P_UG_AL_2/0_Converse_0_416_0_2_2

New Line.l(r:p1ulv373-udm865) Units=km Length=0.014078900000000002 bus1=udm865.1.2 bus2=p1ulv373.1.2 switch=n enabled=y phases=2 Linecode=1P_UG_AL_1/0_Brenau_0_416_0_2_2

New Line.l(r:p1ulv44958-udm865) Units=km Length=0.0161352 bus1=udm865.1.2 bus2=p1ulv44958.1.2 switch=n enabled=y phases=2 Linecode=1P_UG_AL_1/0_Brenau_0_416_0_2_2

New Line.l(r:p1ulv50292-udm869) Units=km Length=0.0183725 bus1=udm869.1.2 bus2=p1ulv50292.1.2 switch=n enabled=y phases=2 Linecode=1P_UG_AL_1/0_Brenau_0_416_0_2_2

New Line.l(r:udm865-udm869) Units=km Length=0.0296301 bus1=udm865.1.2 bus2=udm869.1.2 switch=n enabled=y phases=2 Linecode=1P_UG_AL_1/0_Brenau_0_416_0_2_2

New Line.l(r:udm865-udt233lv) Units=km Length=0.00988005 bus1=udt233lv.1.2 bus2=udm865.1.2 switch=n enabled=y phases=2 Linecode=1P_UG_AL_4/0_Sweetbriar_0_416_0_2_2

New Line.l(r:p1ulv48223-udm868) Units=km Length=0.0203904 bus1=udm868.1.2 bus2=p1ulv48223.1.2 switch=n enabled=y phases=2 Linecode=1P_UG_AL_1/0_Brenau_0_416_0_2_2

New Line.l(r:p1ulv364-udm864) Units=km Length=0.0193546 bus1=udm864.1.2 bus2=p1ulv364.1.2 switch=n enabled=y phases=2 Linecode=1P_UG_AL_1/0_Brenau_0_416_0_2_2

New Line.l(r:p1ulv55905-udm870) Units=km Length=0.0138902 bus1=udm870.1.2 bus2=p1ulv55905.1.2 switch=n enabled=y phases=2 Linecode=1P_UG_AL_1/0_Brenau_0_416_0_2_2

New Line.l(r:p1ulv389-udm866) Units=km Length=0.0294434 bus1=udm866.1.2 bus2=p1ulv389.1.2 switch=n enabled=y phases=2 Linecode=1P_UG_AL_1/0_Brenau_0_416_0_2_2

New Line.l(r:udm866-udm870) Units=km Length=0.05766810000000001 bus1=udm870.1.2 bus2=udm866.1.2 switch=n enabled=y phases=2 Linecode=1P_UG_AL_1/0_Brenau_0_416_0_2_2

New Line.l(r:udm864-udm870) Units=km Length=0.00988005 bus1=udm864.1.2 bus2=udm870.1.2 switch=n enabled=y phases=2 Linecode=1P_UG_AL_1/0_Brenau_0_416_0_2_2

New Line.l(r:udm864-udm868) Units=km Length=0.00988005 bus1=udm868.1.2 bus2=udm864.1.2 switch=n enabled=y phases=2 Linecode=1P_UG_AL_1/0_Brenau_0_416_0_2_2

New Line.l(r:udm868-udt233lv) Units=km Length=0.00988002 bus1=udt233lv.1.2 bus2=udm868.1.2 switch=n enabled=y phases=2 Linecode=1P_UG_AL_4/0_Sweetbriar_0_416_0_2_2

New Line.l(r:p1ulv365-udm871) Units=km Length=0.0106012 bus1=udm871.1.2 bus2=p1ulv365.1.2 switch=n enabled=y phases=2 Linecode=1P_UG_AL_1/0_Brenau_0_416_0_2_2

New Line.l(r:udm871-udt234lv) Units=km Length=0.00947191 bus1=udt234lv.1.2 bus2=udm871.1.2 switch=n enabled=y phases=2 Linecode=1P_UG_AL_1/0_Brenau_0_416_0_2_2

New Line.l(r:p1ulv61103-udm872) Units=km Length=0.031191700000000003 bus1=udm872.1.2 bus2=p1ulv61103.1.2 switch=n enabled=y phases=2 Linecode=1P_UG_AL_4/0_Sweetbriar_0_416_0_2_2

New Line.l(r:udm872-udt234lv) Units=km Length=0.00948211 bus1=udt234lv.1.2 bus2=udm872.1.2 switch=n enabled=y phases=2 Linecode=1P_UG_AL_4/0_Sweetbriar_0_416_0_2_2

New Line.l(r:p1ulv51861-udt235lv) Units=km Length=0.0745588 bus1=udt235lv.1.2 bus2=p1ulv51861.1.2 switch=n enabled=y phases=2 Linecode=1P_UG_AL_4/0_Sweetbriar_0_416_0_2_2

New Line.l(r:p1ulv366-udm873) Units=km Length=0.029631600000000004 bus1=udm873.1.2 bus2=p1ulv366.1.2 switch=n enabled=y phases=2 Linecode=1P_UG_AL_1/0_Brenau_0_416_0_2_2

New Line.l(r:udm873-udt235lv) Units=km Length=0.0194962 bus1=udt235lv.1.2 bus2=udm873.1.2 switch=n enabled=y phases=2 Linecode=1P_UG_AL_1/0_Brenau_0_416_0_2_2

New Line.l(r:p1ulv56891-udm875) Units=km Length=0.045501 bus1=udm875.1.2 bus2=p1ulv56891.1.2 switch=n enabled=y phases=2 Linecode=1P_UG_AL_4/0_Sweetbriar_0_416_0_2_2

New Line.l(r:udm875-udt235lv) Units=km Length=0.00975295 bus1=udt235lv.1.2 bus2=udm875.1.2 switch=n enabled=y phases=2 Linecode=1P_UG_AL_4/0_Sweetbriar_0_416_0_2_2

New Line.l(r:p1ulv368-udm882) Units=km Length=0.024551 bus1=udm882.1.2 bus2=p1ulv368.1.2 switch=n enabled=y phases=2 Linecode=1P_UG_AL_2/0_Converse_0_416_0_2_2

New Line.l(r:udm882-udt237lv) Units=km Length=0.02745 bus1=udt237lv.1.2 bus2=udm882.1.2 switch=n enabled=y phases=2 Linecode=1P_UG_AL_2/0_Converse_0_416_0_2_2

New Line.l(r:p1ulv54268-udm883) Units=km Length=0.0381841 bus1=udm883.1.2 bus2=p1ulv54268.1.2 switch=n enabled=y phases=2 Linecode=1P_UG_AL_1/0_Brenau_0_416_0_2_2

New Line.l(r:udm883-udt237lv) Units=km Length=0.028507300000000003 bus1=udt237lv.1.2 bus2=udm883.1.2 switch=n enabled=y phases=2 Linecode=1P_UG_AL_1/0_Brenau_0_416_0_2_2

New Line.l(r:p1ulv3744-udt238lv) Units=km Length=0.022009500000000005 bus1=udt238lv.1.2 bus2=p1ulv3744.1.2 switch=n enabled=y phases=2 Linecode=1P_UG_AL_2/0_Converse_0_416_0_2_2

New Line.l(r:p1ulv3743-udm886) Units=km Length=0.0292353 bus1=udm886.1.2 bus2=p1ulv3743.1.2 switch=n enabled=y phases=2 Linecode=1P_UG_AL_2/0_Converse_0_416_0_2_2

New Line.l(r:p1ulv370-udm884) Units=km Length=0.0214751 bus1=udm884.1.2 bus2=p1ulv370.1.2 switch=n enabled=y phases=2 Linecode=1P_UG_AL_1/0_Brenau_0_416_0_2_2

New Line.l(r:p1ulv371-udm884) Units=km Length=0.0103336 bus1=udm884.1.2 bus2=p1ulv371.1.2 switch=n enabled=y phases=2 Linecode=1P_UG_AL_1/0_Brenau_0_416_0_2_2

New Line.l(r:udm884-udm886) Units=km Length=0.0374199 bus1=udm886.1.2 bus2=udm884.1.2 switch=n enabled=y phases=2 Linecode=1P_UG_AL_1/0_Brenau_0_416_0_2_2

New Line.l(r:udm886-udt238lv) Units=km Length=0.00753618 bus1=udt238lv.1.2 bus2=udm886.1.2 switch=n enabled=y phases=2 Linecode=1P_UG_AL_4/0_Sweetbriar_0_416_0_2_2

New Line.l(r:p1ulv372-udm888) Units=km Length=0.0193077 bus1=udm888.1.2 bus2=p1ulv372.1.2 switch=n enabled=y phases=2 Linecode=1P_UG_AL_1/0_Brenau_0_416_0_2_2

New Line.l(r:p1ulv381-udm888) Units=km Length=0.0427598 bus1=udm888.1.2 bus2=p1ulv381.1.2 switch=n enabled=y phases=2 Linecode=1P_UG_AL_1/0_Brenau_0_416_0_2_2

New Line.l(r:udm888-udt239lv) Units=km Length=0.00988005 bus1=udt239lv.1.2 bus2=udm888.1.2 switch=n enabled=y phases=2 Linecode=1P_UG_AL_1/0_Brenau_0_416_0_2_2

New Line.l(r:p1ulv374-udm889) Units=km Length=0.0247237 bus1=udm889.1.2 bus2=p1ulv374.1.2 switch=n enabled=y phases=2 Linecode=1P_UG_AL_1/0_Brenau_0_416_0_2_2

New Line.l(r:udm889-udt239lv) Units=km Length=0.0725395 bus1=udt239lv.1.2 bus2=udm889.1.2 switch=n enabled=y phases=2 Linecode=1P_UG_AL_1/0_Brenau_0_416_0_2_2

New Line.l(r:p1ulv375-udt240lv) Units=km Length=0.0118136 bus1=udt240lv.1.2 bus2=p1ulv375.1.2 switch=n enabled=y phases=2 Linecode=1P_OH_AL_2/0_Rucina_0_416_0_2_2

New Line.l(r:p1ulv50991-udt240lv) Units=km Length=0.028951 bus1=udt240lv.1.2 bus2=p1ulv50991.1.2 switch=n enabled=y phases=2 Linecode=1P_OH_AL_4/0_Zuzara_0_416_0_2_2

New Line.l(r:p1ulv51289-udm893) Units=km Length=0.0319198 bus1=udm893.1.2 bus2=p1ulv51289.1.2 switch=n enabled=y phases=2 Linecode=1P_OH_AL_4/0_Zuzara_0_416_0_2_2

New Line.l(r:udm893-udt240lv) Units=km Length=0.019024000000000003 bus1=udt240lv.1.2 bus2=udm893.1.2 switch=n enabled=y phases=2 Linecode=1P_OH_AL_2/0_Rucina_0_416_0_2_2

New Line.l(r:p1ulv54508-udm894) Units=km Length=0.0160816 bus1=udm894.1.2 bus2=p1ulv54508.1.2 switch=n enabled=y phases=2 Linecode=1P_OH_AL_2/0_Rucina_0_416_0_2_2

New Line.l(r:udm894-udt240lv) Units=km Length=0.0190336 bus1=udt240lv.1.2 bus2=udm894.1.2 switch=n enabled=y phases=2 Linecode=1P_OH_AL_2/0_Rucina_0_416_0_2_2

New Line.l(r:p1ulv57244-udt241lv) Units=km Length=0.0190501 bus1=udt241lv.1.2 bus2=p1ulv57244.1.2 switch=n enabled=y phases=2 Linecode=1P_OH_AL_2/0_Rucina_0_416_0_2_2

New Line.l(r:p1ulv376-udm895) Units=km Length=0.0275176 bus1=udm895.1.2 bus2=p1ulv376.1.2 switch=n enabled=y phases=2 Linecode=1P_OH_AL_4/0_Zuzara_0_416_0_2_2

New Line.l(r:p1ulv388-udm895) Units=km Length=0.0163924 bus1=udm895.1.2 bus2=p1ulv388.1.2 switch=n enabled=y phases=2 Linecode=1P_OH_AL_2/0_Rucina_0_416_0_2_2

New Line.l(r:p1ulv46375-udm897) Units=km Length=0.022212 bus1=udm897.1.2 bus2=p1ulv46375.1.2 switch=n enabled=y phases=2 Linecode=1P_OH_AL_2/0_Rucina_0_416_0_2_2

New Line.l(r:udm895-udm897) Units=km Length=0.0199016 bus1=udm895.1.2 bus2=udm897.1.2 switch=n enabled=y phases=2 Linecode=1P_OH_AL_2/0_Rucina_0_416_0_2_2

New Line.l(r:udm895-udt241lv) Units=km Length=0.019891600000000002 bus1=udt241lv.1.2 bus2=udm895.1.2 switch=n enabled=y phases=2 Linecode=1P_OH_AL_2/0_Rucina_0_416_0_2_2

New Line.l(r:p1ulv49776-udm898) Units=km Length=0.00987093 bus1=udm898.1.2 bus2=p1ulv49776.1.2 switch=n enabled=y phases=2 Linecode=1P_OH_AL_2/0_Rucina_0_416_0_2_2

New Line.l(r:udm898-udt241lv) Units=km Length=0.0994975 bus1=udt241lv.1.2 bus2=udm898.1.2 switch=n enabled=y phases=2 Linecode=1P_OH_AL_4/0_Zuzara_0_416_0_2_2

New Line.l(r:p1ulv377-udt242lv) Units=km Length=0.0214124 bus1=udt242lv.1.2 bus2=p1ulv377.1.2 switch=n enabled=y phases=2 Linecode=1P_UG_AL_1/0_Brenau_0_416_0_2_2

New Line.l(r:p1ulv3734-udt242lv) Units=km Length=0.050545 bus1=udt242lv.1.2 bus2=p1ulv3734.1.2 switch=n enabled=y phases=2 Linecode=1P_UG_AL_1/0_Brenau_0_416_0_2_2

New Line.l(r:p1ulv3735-udt242lv) Units=km Length=0.0444841 bus1=udt242lv.1.2 bus2=p1ulv3735.1.2 switch=n enabled=y phases=2 Linecode=1P_UG_AL_1/0_Brenau_0_416_0_2_2

New Line.l(r:p1ulv48164-udm903) Units=km Length=0.0141709 bus1=udm903.1.2 bus2=p1ulv48164.1.2 switch=n enabled=y phases=2 Linecode=1P_UG_AL_1/0_Brenau_0_416_0_2_2

New Line.l(r:p1ulv56710-udm904) Units=km Length=0.0374695 bus1=udm904.1.2 bus2=p1ulv56710.1.2 switch=n enabled=y phases=2 Linecode=1P_UG_AL_2/0_Converse_0_416_0_2_2

New Line.l(r:udm903-udm904) Units=km Length=0.00945002 bus1=udm903.1.2 bus2=udm904.1.2 switch=n enabled=y phases=2 Linecode=1P_UG_AL_2/0_Converse_0_416_0_2_2

New Line.l(r:udm903-udt242lv) Units=km Length=0.00944001 bus1=udt242lv.1.2 bus2=udm903.1.2 switch=n enabled=y phases=2 Linecode=1P_UG_AL_4/0_Sweetbriar_0_416_0_2_2

New Line.l(r:p1ulv384-udt243lv) Units=km Length=0.0432712 bus1=udt243lv.1.2 bus2=p1ulv384.1.2 switch=n enabled=y phases=2 Linecode=1P_UG_AL_1/0_Brenau_0_416_0_2_2

New Line.l(r:p1ulv39621-udm908) Units=km Length=0.0186576 bus1=udm908.1.2 bus2=p1ulv39621.1.2 switch=n enabled=y phases=2 Linecode=1P_UG_AL_1/0_Brenau_0_416_0_2_2

New Line.l(r:p1ulv382-udm906) Units=km Length=0.021061400000000004 bus1=udm906.1.2 bus2=p1ulv382.1.2 switch=n enabled=y phases=2 Linecode=1P_UG_AL_1/0_Brenau_0_416_0_2_2

New Line.l(r:p1ulv52659-udm906) Units=km Length=0.0159537 bus1=udm906.1.2 bus2=p1ulv52659.1.2 switch=n enabled=y phases=2 Linecode=1P_UG_AL_1/0_Brenau_0_416_0_2_2

New Line.l(r:udm906-udm908) Units=km Length=0.00900076 bus1=udm908.1.2 bus2=udm906.1.2 switch=n enabled=y phases=2 Linecode=1P_UG_AL_1/0_Brenau_0_416_0_2_2

New Line.l(r:udm908-udt243lv) Units=km Length=0.00900028 bus1=udt243lv.1.2 bus2=udm908.1.2 switch=n enabled=y phases=2 Linecode=1P_UG_AL_2/0_Converse_0_416_0_2_2

New Line.l(r:p1ulv45217-udm909) Units=km Length=0.0231986 bus1=udm909.1.2 bus2=p1ulv45217.1.2 switch=n enabled=y phases=2 Linecode=1P_UG_AL_1/0_Brenau_0_416_0_2_2

New Line.l(r:udm909-udt243lv) Units=km Length=0.028891800000000002 bus1=udt243lv.1.2 bus2=udm909.1.2 switch=n enabled=y phases=2 Linecode=1P_UG_AL_1/0_Brenau_0_416_0_2_2

New Line.l(r:p1ulv48490-udm910) Units=km Length=0.0171803 bus1=udm910.1.2 bus2=p1ulv48490.1.2 switch=n enabled=y phases=2 Linecode=1P_UG_AL_1/0_Brenau_0_416_0_2_2

New Line.l(r:p1ulv378-udm905) Units=km Length=0.0227941 bus1=udm905.1.2 bus2=p1ulv378.1.2 switch=n enabled=y phases=2 Linecode=1P_UG_AL_1/0_Brenau_0_416_0_2_2

New Line.l(r:udm905-udm910) Units=km Length=0.00945002 bus1=udm910.1.2 bus2=udm905.1.2 switch=n enabled=y phases=2 Linecode=1P_UG_AL_1/0_Brenau_0_416_0_2_2

New Line.l(r:udm910-udt243lv) Units=km Length=0.037360300000000006 bus1=udt243lv.1.2 bus2=udm910.1.2 switch=n enabled=y phases=2 Linecode=1P_UG_AL_1/0_Brenau_0_416_0_2_2

New Line.l(r:p1ulv57536-udt245lv) Units=km Length=0.0392499 bus1=udt245lv.1.2 bus2=p1ulv57536.1.2 switch=n enabled=y phases=2 Linecode=1P_UG_AL_1/0_Brenau_0_416_0_2_2

New Line.l(r:p1ulv380-udm915) Units=km Length=0.0168714 bus1=udm915.1.2 bus2=p1ulv380.1.2 switch=n enabled=y phases=2 Linecode=1P_UG_AL_1/0_Brenau_0_416_0_2_2

New Line.l(r:udm915-udt245lv) Units=km Length=0.00990316 bus1=udt245lv.1.2 bus2=udm915.1.2 switch=n enabled=y phases=2 Linecode=1P_UG_AL_1/0_Brenau_0_416_0_2_2

New Line.l(r:p1ulv52117-udm916) Units=km Length=0.0156669 bus1=udm916.1.2 bus2=p1ulv52117.1.2 switch=n enabled=y phases=2 Linecode=1P_UG_AL_1/0_Brenau_0_416_0_2_2

New Line.l(r:udm916-udt245lv) Units=km Length=0.0197966 bus1=udt245lv.1.2 bus2=udm916.1.2 switch=n enabled=y phases=2 Linecode=1P_UG_AL_1/0_Brenau_0_416_0_2_2

New Line.l(r:p1ulv386-udt248lv) Units=km Length=0.0763883 bus1=udt248lv.1.2 bus2=p1ulv386.1.2 switch=n enabled=y phases=2 Linecode=1P_UG_AL_4/0_Sweetbriar_0_416_0_2_2

New Line.l(r:p1ulv59630-udt250lv) Units=km Length=0.0230842 bus1=udt250lv.1.2 bus2=p1ulv59630.1.2 switch=n enabled=y phases=2 Linecode=1P_UG_AL_1/0_Brenau_0_416_0_2_2

New Line.l(r:p1ulv53071-udm932) Units=km Length=0.013761100000000002 bus1=udm932.1.2 bus2=p1ulv53071.1.2 switch=n enabled=y phases=2 Linecode=1P_UG_AL_1/0_Brenau_0_416_0_2_2

New Line.l(r:udm932-udt250lv) Units=km Length=0.0507861 bus1=udt250lv.1.2 bus2=udm932.1.2 switch=n enabled=y phases=2 Linecode=1P_UG_AL_1/0_Brenau_0_416_0_2_2

New Line.l(r:p1ulv53436-udm933) Units=km Length=0.0465885 bus1=udm933.1.2 bus2=p1ulv53436.1.2 switch=n enabled=y phases=2 Linecode=1P_UG_AL_1/0_Brenau_0_416_0_2_2

New Line.l(r:p1ulv390-udm931) Units=km Length=0.0245453 bus1=udm931.1.2 bus2=p1ulv390.1.2 switch=n enabled=y phases=2 Linecode=1P_UG_AL_1/0_Brenau_0_416_0_2_2

New Line.l(r:udm931-udm933) Units=km Length=0.0197601 bus1=udm933.1.2 bus2=udm931.1.2 switch=n enabled=y phases=2 Linecode=1P_UG_AL_1/0_Brenau_0_416_0_2_2

New Line.l(r:udm933-udt250lv) Units=km Length=0.00988002 bus1=udt250lv.1.2 bus2=udm933.1.2 switch=n enabled=y phases=2 Linecode=1P_UG_AL_1/0_Brenau_0_416_0_2_2

New Line.l(r:p1ulv397-udm946) Units=km Length=0.0531761 bus1=udm946.1.2 bus2=p1ulv397.1.2 switch=n enabled=y phases=2 Linecode=1P_UG_AL_1/0_Brenau_0_416_0_2_2

New Line.l(r:udm946-udt257lv) Units=km Length=0.0191953 bus1=udt257lv.1.2 bus2=udm946.1.2 switch=n enabled=y phases=2 Linecode=1P_UG_AL_1/0_Brenau_0_416_0_2_2

New Line.l(r:p1ulv58774-udm947) Units=km Length=0.0178577 bus1=udm947.1.2 bus2=p1ulv58774.1.2 switch=n enabled=y phases=2 Linecode=1P_UG_AL_1/0_Brenau_0_416_0_2_2

New Line.l(r:udm947-udt257lv) Units=km Length=0.0279894 bus1=udt257lv.1.2 bus2=udm947.1.2 switch=n enabled=y phases=2 Linecode=1P_UG_AL_1/0_Brenau_0_416_0_2_2

New Line.l(r:p1ulv3703-udt1765lv) Units=km Length=0.0189011 bus1=udt1765lv.1.2 bus2=p1ulv3703.1.2 switch=n enabled=y phases=2 Linecode=1P_UG_AL_1/0_Brenau_0_416_0_2_2

New Line.l(r:p1ulv3704-udt1765lv) Units=km Length=0.0160741 bus1=udt1765lv.1.2 bus2=p1ulv3704.1.2 switch=n enabled=y phases=2 Linecode=1P_UG_AL_1/0_Brenau_0_416_0_2_2

New Line.l(r:p1ulv3705-udt1765lv) Units=km Length=0.0153602 bus1=udt1765lv.1.2 bus2=p1ulv3705.1.2 switch=n enabled=y phases=2 Linecode=1P_UG_AL_1/0_Brenau_0_416_0_2_2

New Line.l(r:p1ulv3712-udt1765lv) Units=km Length=0.0208735 bus1=udt1765lv.1.2 bus2=p1ulv3712.1.2 switch=n enabled=y phases=2 Linecode=1P_UG_AL_1/0_Brenau_0_416_0_2_2

New Line.l(r:p1ulv3713-udt1765lv) Units=km Length=0.0213136 bus1=udt1765lv.1.2 bus2=p1ulv3713.1.2 switch=n enabled=y phases=2 Linecode=1P_UG_AL_1/0_Brenau_0_416_0_2_2

New Line.l(r:p1ulv3714-udt1765lv) Units=km Length=0.0232799 bus1=udt1765lv.1.2 bus2=p1ulv3714.1.2 switch=n enabled=y phases=2 Linecode=1P_UG_AL_1/0_Brenau_0_416_0_2_2

New Line.l(r:p1ulv3706-udm6966) Units=km Length=0.0145869 bus1=udm6966.1.2 bus2=p1ulv3706.1.2 switch=n enabled=y phases=2 Linecode=1P_UG_AL_1/0_Brenau_0_416_0_2_2

New Line.l(r:p1ulv3707-udm6967) Units=km Length=0.0139414 bus1=udm6967.1.2 bus2=p1ulv3707.1.2 switch=n enabled=y phases=2 Linecode=1P_UG_AL_1/0_Brenau_0_416_0_2_2

New Line.l(r:udm6966-udm6967) Units=km Length=0.00805702 bus1=udm6966.1.2 bus2=udm6967.1.2 switch=n enabled=y phases=2 Linecode=1P_UG_AL_1/0_Brenau_0_416_0_2_2

New Line.l(r:udm6966-udt1765lv) Units=km Length=0.0080433 bus1=udt1765lv.1.2 bus2=udm6966.1.2 switch=n enabled=y phases=2 Linecode=1P_UG_AL_1/0_Brenau_0_416_0_2_2

New Line.l(r:p1ulv3710-udt1766lv) Units=km Length=0.01224 bus1=udt1766lv.1.2 bus2=p1ulv3710.1.2 switch=n enabled=y phases=2 Linecode=1P_UG_AL_1/0_Brenau_0_416_0_2_2

New Line.l(r:p1ulv3727-udt1766lv) Units=km Length=0.016137900000000004 bus1=udt1766lv.1.2 bus2=p1ulv3727.1.2 switch=n enabled=y phases=2 Linecode=1P_UG_AL_1/0_Brenau_0_416_0_2_2

New Line.l(r:p1ulv3728-udt1766lv) Units=km Length=0.017554900000000002 bus1=udt1766lv.1.2 bus2=p1ulv3728.1.2 switch=n enabled=y phases=2 Linecode=1P_UG_AL_1/0_Brenau_0_416_0_2_2

New Line.l(r:p1ulv3709-udm6971) Units=km Length=0.0129907 bus1=udm6971.1.2 bus2=p1ulv3709.1.2 switch=n enabled=y phases=2 Linecode=1P_UG_AL_1/0_Brenau_0_416_0_2_2

New Line.l(r:udm6971-udt1766lv) Units=km Length=0.00805186 bus1=udt1766lv.1.2 bus2=udm6971.1.2 switch=n enabled=y phases=2 Linecode=1P_UG_AL_1/0_Brenau_0_416_0_2_2

New Line.l(r:p1ulv3729-udm6975) Units=km Length=0.018864800000000004 bus1=udm6975.1.2 bus2=p1ulv3729.1.2 switch=n enabled=y phases=2 Linecode=1P_UG_AL_1/0_Brenau_0_416_0_2_2

New Line.l(r:p1ulv3730-udm6976) Units=km Length=0.0206036 bus1=udm6976.1.2 bus2=p1ulv3730.1.2 switch=n enabled=y phases=2 Linecode=1P_UG_AL_1/0_Brenau_0_416_0_2_2

New Line.l(r:udm6975-udm6976) Units=km Length=0.0092433 bus1=udm6975.1.2 bus2=udm6976.1.2 switch=n enabled=y phases=2 Linecode=1P_UG_AL_1/0_Brenau_0_416_0_2_2

New Line.l(r:udm6975-udt1766lv) Units=km Length=0.0092399 bus1=udt1766lv.1.2 bus2=udm6975.1.2 switch=n enabled=y phases=2 Linecode=1P_UG_AL_1/0_Brenau_0_416_0_2_2

New Line.l(r:p1ulv3717-udt1767lv) Units=km Length=0.019986 bus1=udt1767lv.1.2 bus2=p1ulv3717.1.2 switch=n enabled=y phases=2 Linecode=1P_UG_AL_1/0_Brenau_0_416_0_2_2

New Line.l(r:p1ulv3715-udm6978) Units=km Length=0.0205498 bus1=udm6978.1.2 bus2=p1ulv3715.1.2 switch=n enabled=y phases=2 Linecode=1P_UG_AL_1/0_Brenau_0_416_0_2_2

New Line.l(r:p1ulv3716-udm6978) Units=km Length=0.0204185 bus1=udm6978.1.2 bus2=p1ulv3716.1.2 switch=n enabled=y phases=2 Linecode=1P_UG_AL_1/0_Brenau_0_416_0_2_2

New Line.l(r:p1ulv3711-udm6977) Units=km Length=0.0205443 bus1=udm6977.1.2 bus2=p1ulv3711.1.2 switch=n enabled=y phases=2 Linecode=1P_UG_AL_1/0_Brenau_0_416_0_2_2

New Line.l(r:udm6977-udm6978) Units=km Length=0.00827329 bus1=udm6978.1.2 bus2=udm6977.1.2 switch=n enabled=y phases=2 Linecode=1P_UG_AL_1/0_Brenau_0_416_0_2_2

New Line.l(r:udm6978-udt1767lv) Units=km Length=0.0082654 bus1=udt1767lv.1.2 bus2=udm6978.1.2 switch=n enabled=y phases=2 Linecode=1P_UG_AL_1/0_Brenau_0_416_0_2_2

New Line.l(r:p1ulv3718-udm6981) Units=km Length=0.0199074 bus1=udm6981.1.2 bus2=p1ulv3718.1.2 switch=n enabled=y phases=2 Linecode=1P_UG_AL_1/0_Brenau_0_416_0_2_2

New Line.l(r:p1ulv3719-udm6981) Units=km Length=0.0155999 bus1=udm6981.1.2 bus2=p1ulv3719.1.2 switch=n enabled=y phases=2 Linecode=1P_UG_AL_1/0_Brenau_0_416_0_2_2

New Line.l(r:p1ulv3720-udm6981) Units=km Length=0.0109764 bus1=udm6981.1.2 bus2=p1ulv3720.1.2 switch=n enabled=y phases=2 Linecode=1P_UG_AL_1/0_Brenau_0_416_0_2_2

New Line.l(r:p1ulv3721-udm6981) Units=km Length=0.00560289 bus1=udm6981.1.2 bus2=p1ulv3721.1.2 switch=n enabled=y phases=2 Linecode=1P_UG_AL_1/0_Brenau_0_416_0_2_2

New Line.l(r:p1ulv3722-udm6981) Units=km Length=0.0037088000000000004 bus1=udm6981.1.2 bus2=p1ulv3722.1.2 switch=n enabled=y phases=2 Linecode=1P_UG_AL_1/0_Brenau_0_416_0_2_2

New Line.l(r:p1ulv3726-udm6981) Units=km Length=0.0179254 bus1=udm6981.1.2 bus2=p1ulv3726.1.2 switch=n enabled=y phases=2 Linecode=1P_UG_AL_1/0_Brenau_0_416_0_2_2

New Line.l(r:udm6981-udt1767lv) Units=km Length=0.0082654 bus1=udt1767lv.1.2 bus2=udm6981.1.2 switch=n enabled=y phases=2 Linecode=1P_UG_AL_4/0_Sweetbriar_0_416_0_2_2

New Line.l(r:p1ulv3724-udt1768lv) Units=km Length=0.00766975 bus1=udt1768lv.1.2 bus2=p1ulv3724.1.2 switch=n enabled=y phases=2 Linecode=1P_UG_AL_1/0_Brenau_0_416_0_2_2

New Line.l(r:p1ulv3725-udt1768lv) Units=km Length=0.011422500000000002 bus1=udt1768lv.1.2 bus2=p1ulv3725.1.2 switch=n enabled=y phases=2 Linecode=1P_UG_AL_1/0_Brenau_0_416_0_2_2

New Line.l(r:p1ulv53301-udt1768lv) Units=km Length=0.0458258 bus1=udt1768lv.1.2 bus2=p1ulv53301.1.2 switch=n enabled=y phases=2 Linecode=1P_UG_AL_4/0_Sweetbriar_0_416_0_2_2

New Line.l(r:p1ulv57602-udt1768lv) Units=km Length=0.0431482 bus1=udt1768lv.1.2 bus2=p1ulv57602.1.2 switch=n enabled=y phases=2 Linecode=1P_UG_AL_4/0_Sweetbriar_0_416_0_2_2

New Line.l(r:p1ulv3738-udt1770lv) Units=km Length=0.026666000000000002 bus1=udt1770lv.1.2 bus2=p1ulv3738.1.2 switch=n enabled=y phases=2 Linecode=1P_UG_AL_1/0_Brenau_0_416_0_2_2

New Line.l(r:p1ulv3753-udt1770lv) Units=km Length=0.052189 bus1=udt1770lv.1.2 bus2=p1ulv3753.1.2 switch=n enabled=y phases=2 Linecode=1P_UG_AL_2/0_Converse_0_416_0_2_2

New Line.l(r:p1ulv3739-udm6994) Units=km Length=0.0273787 bus1=udm6994.1.2 bus2=p1ulv3739.1.2 switch=n enabled=y phases=2 Linecode=1P_UG_AL_2/0_Converse_0_416_0_2_2

New Line.l(r:p1ulv3754-udm6994) Units=km Length=0.0526865 bus1=udm6994.1.2 bus2=p1ulv3754.1.2 switch=n enabled=y phases=2 Linecode=1P_UG_AL_1/0_Brenau_0_416_0_2_2

New Line.l(r:udm6994-udt1770lv) Units=km Length=0.00889089 bus1=udt1770lv.1.2 bus2=udm6994.1.2 switch=n enabled=y phases=2 Linecode=1P_UG_AL_4/0_Sweetbriar_0_416_0_2_2
