New Line.l(r:p1ulv40532-udt115lv) Units=km Length=0.0185856 bus1=udt115lv.1.2 bus2=p1ulv40532.1.2 switch=n enabled=y phases=2 Linecode=1P_UG_AL_1/0_Brenau_0_416_0_2_2

New Line.l(r:p1ulv49238-udt115lv) Units=km Length=0.0175631 bus1=udt115lv.1.2 bus2=p1ulv49238.1.2 switch=n enabled=y phases=2 Linecode=1P_UG_AL_1/0_Brenau_0_416_0_2_2

New Line.l(r:p1ulv147-udm402) Units=km Length=0.0172284 bus1=udm402.1.2 bus2=p1ulv147.1.2 switch=n enabled=y phases=2 Linecode=1P_UG_AL_1/0_Brenau_0_416_0_2_2

New Line.l(r:p1ulv29953-udm404) Units=km Length=0.0156356 bus1=udm404.1.2 bus2=p1ulv29953.1.2 switch=n enabled=y phases=2 Linecode=1P_UG_AL_1/0_Brenau_0_416_0_2_2

New Line.l(r:udm402-udm404) Units=km Length=0.0193144 bus1=udm402.1.2 bus2=udm404.1.2 switch=n enabled=y phases=2 Linecode=1P_UG_AL_1/0_Brenau_0_416_0_2_2

New Line.l(r:udm402-udt115lv) Units=km Length=0.00966207 bus1=udt115lv.1.2 bus2=udm402.1.2 switch=n enabled=y phases=2 Linecode=1P_UG_AL_1/0_Brenau_0_416_0_2_2

New Line.l(r:p1ulv27318-udm403) Units=km Length=0.0181367 bus1=udm403.1.2 bus2=p1ulv27318.1.2 switch=n enabled=y phases=2 Linecode=1P_UG_AL_1/0_Brenau_0_416_0_2_2

New Line.l(r:p1ulv34459-udm405) Units=km Length=0.0164076 bus1=udm405.1.2 bus2=p1ulv34459.1.2 switch=n enabled=y phases=2 Linecode=1P_UG_AL_1/0_Brenau_0_416_0_2_2

New Line.l(r:p1ulv37848-udm406) Units=km Length=0.0156534 bus1=udm406.1.2 bus2=p1ulv37848.1.2 switch=n enabled=y phases=2 Linecode=1P_UG_AL_1/0_Brenau_0_416_0_2_2

New Line.l(r:udm405-udm406) Units=km Length=0.00965228 bus1=udm405.1.2 bus2=udm406.1.2 switch=n enabled=y phases=2 Linecode=1P_UG_AL_1/0_Brenau_0_416_0_2_2

New Line.l(r:udm403-udm405) Units=km Length=0.00966207 bus1=udm403.1.2 bus2=udm405.1.2 switch=n enabled=y phases=2 Linecode=1P_UG_AL_2/0_Converse_0_416_0_2_2

New Line.l(r:udm403-udt115lv) Units=km Length=0.00965228 bus1=udt115lv.1.2 bus2=udm403.1.2 switch=n enabled=y phases=2 Linecode=1P_UG_AL_4/0_Sweetbriar_0_416_0_2_2

New Line.l(r:p1ulv148-udt116lv) Units=km Length=0.011575000000000002 bus1=udt116lv.1.2 bus2=p1ulv148.1.2 switch=n enabled=y phases=2 Linecode=1P_UG_AL_1/0_Brenau_0_416_0_2_2

New Line.l(r:p1ulv26337-udm410) Units=km Length=0.0206533 bus1=udm410.1.2 bus2=p1ulv26337.1.2 switch=n enabled=y phases=2 Linecode=1P_UG_AL_1/0_Brenau_0_416_0_2_2

New Line.l(r:p1ulv50843-udm418) Units=km Length=0.0112004 bus1=udm418.1.2 bus2=p1ulv50843.1.2 switch=n enabled=y phases=2 Linecode=1P_UG_AL_1/0_Brenau_0_416_0_2_2

New Line.l(r:p1ulv47391-udm416) Units=km Length=0.02195 bus1=udm416.1.2 bus2=p1ulv47391.1.2 switch=n enabled=y phases=2 Linecode=1P_UG_AL_1/0_Brenau_0_416_0_2_2

New Line.l(r:p1ulv50451-udm416) Units=km Length=0.0115304 bus1=udm416.1.2 bus2=p1ulv50451.1.2 switch=n enabled=y phases=2 Linecode=1P_UG_AL_1/0_Brenau_0_416_0_2_2

New Line.l(r:udm416-udm418) Units=km Length=0.0192557 bus1=udm418.1.2 bus2=udm416.1.2 switch=n enabled=y phases=2 Linecode=1P_UG_AL_1/0_Brenau_0_416_0_2_2

New Line.l(r:udm410-udm418) Units=km Length=0.0192555 bus1=udm410.1.2 bus2=udm418.1.2 switch=n enabled=y phases=2 Linecode=1P_UG_AL_2/0_Converse_0_416_0_2_2

New Line.l(r:udm410-udt116lv) Units=km Length=0.00963299 bus1=udt116lv.1.2 bus2=udm410.1.2 switch=n enabled=y phases=2 Linecode=1P_UG_AL_4/0_Sweetbriar_0_416_0_2_2

New Line.l(r:p1ulv28895-udm413) Units=km Length=0.0200607 bus1=udm413.1.2 bus2=p1ulv28895.1.2 switch=n enabled=y phases=2 Linecode=1P_UG_AL_1/0_Brenau_0_416_0_2_2

New Line.l(r:p1ulv42906-udm415) Units=km Length=0.0190515 bus1=udm415.1.2 bus2=p1ulv42906.1.2 switch=n enabled=y phases=2 Linecode=1P_UG_AL_1/0_Brenau_0_416_0_2_2

New Line.l(r:p1ulv41113-udm414) Units=km Length=0.0158801 bus1=udm414.1.2 bus2=p1ulv41113.1.2 switch=n enabled=y phases=2 Linecode=1P_UG_AL_1/0_Brenau_0_416_0_2_2

New Line.l(r:p1ulv26863-udm411) Units=km Length=0.0176763 bus1=udm411.1.2 bus2=p1ulv26863.1.2 switch=n enabled=y phases=2 Linecode=1P_UG_AL_1/0_Brenau_0_416_0_2_2

New Line.l(r:p1ulv28300-udm411) Units=km Length=0.0106885 bus1=udm411.1.2 bus2=p1ulv28300.1.2 switch=n enabled=y phases=2 Linecode=1P_UG_AL_1/0_Brenau_0_416_0_2_2

New Line.l(r:udm411-udm414) Units=km Length=0.00962275 bus1=udm414.1.2 bus2=udm411.1.2 switch=n enabled=y phases=2 Linecode=1P_UG_AL_1/0_Brenau_0_416_0_2_2

New Line.l(r:udm414-udm415) Units=km Length=0.00963299 bus1=udm415.1.2 bus2=udm414.1.2 switch=n enabled=y phases=2 Linecode=1P_UG_AL_4/0_Sweetbriar_0_416_0_2_2

New Line.l(r:udm413-udm415) Units=km Length=0.00962275 bus1=udm413.1.2 bus2=udm415.1.2 switch=n enabled=y phases=2 Linecode=1P_UG_AL_4/0_Sweetbriar_0_416_0_2_2

New Line.l(r:udm413-udt116lv) Units=km Length=0.009632750000000002 bus1=udt116lv.1.2 bus2=udm413.1.2 switch=n enabled=y phases=2 Linecode=1P_UG_AL_4/0_Sweetbriar_0_416_0_2_2

New Line.l(r:p1ulv26550-udm439) Units=km Length=0.0125174 bus1=udm439.1.2 bus2=p1ulv26550.1.2 switch=n enabled=y phases=2 Linecode=1P_UG_AL_1/0_Brenau_0_416_0_2_2

New Line.l(r:p1ulv30164-udm441) Units=km Length=0.0155547 bus1=udm441.1.2 bus2=p1ulv30164.1.2 switch=n enabled=y phases=2 Linecode=1P_UG_AL_1/0_Brenau_0_416_0_2_2

New Line.l(r:p1ulv33605-udm441) Units=km Length=0.0221188 bus1=udm441.1.2 bus2=p1ulv33605.1.2 switch=n enabled=y phases=2 Linecode=1P_UG_AL_1/0_Brenau_0_416_0_2_2

New Line.l(r:udm439-udm441) Units=km Length=0.00998339 bus1=udm439.1.2 bus2=udm441.1.2 switch=n enabled=y phases=2 Linecode=1P_UG_AL_1/0_Brenau_0_416_0_2_2

New Line.l(r:udm439-udt122lv) Units=km Length=0.00997339 bus1=udt122lv.1.2 bus2=udm439.1.2 switch=n enabled=y phases=2 Linecode=1P_UG_AL_2/0_Converse_0_416_0_2_2

New Line.l(r:p1ulv28587-udm440) Units=km Length=0.0218702 bus1=udm440.1.2 bus2=p1ulv28587.1.2 switch=n enabled=y phases=2 Linecode=1P_UG_AL_1/0_Brenau_0_416_0_2_2

New Line.l(r:p1ulv31942-udm440) Units=km Length=0.0209538 bus1=udm440.1.2 bus2=p1ulv31942.1.2 switch=n enabled=y phases=2 Linecode=1P_UG_AL_1/0_Brenau_0_416_0_2_2

New Line.l(r:p1ulv154-udm438) Units=km Length=0.0155604 bus1=udm438.1.2 bus2=p1ulv154.1.2 switch=n enabled=y phases=2 Linecode=1P_UG_AL_1/0_Brenau_0_416_0_2_2

New Line.l(r:udm438-udm440) Units=km Length=0.00998339 bus1=udm440.1.2 bus2=udm438.1.2 switch=n enabled=y phases=2 Linecode=1P_UG_AL_1/0_Brenau_0_416_0_2_2

New Line.l(r:udm440-udt122lv) Units=km Length=0.00998313 bus1=udt122lv.1.2 bus2=udm440.1.2 switch=n enabled=y phases=2 Linecode=1P_UG_AL_4/0_Sweetbriar_0_416_0_2_2

New Line.l(r:p1ulv157-udt124lv) Units=km Length=0.019496600000000003 bus1=udt124lv.1.2 bus2=p1ulv157.1.2 switch=n enabled=y phases=2 Linecode=1P_UG_AL_1/0_Brenau_0_416_0_2_2

New Line.l(r:p1ulv30562-udm453) Units=km Length=0.022467000000000004 bus1=udm453.1.2 bus2=p1ulv30562.1.2 switch=n enabled=y phases=2 Linecode=1P_UG_AL_1/0_Brenau_0_416_0_2_2

New Line.l(r:p1ulv28727-udm452) Units=km Length=0.017199700000000002 bus1=udm452.1.2 bus2=p1ulv28727.1.2 switch=n enabled=y phases=2 Linecode=1P_UG_AL_1/0_Brenau_0_416_0_2_2

New Line.l(r:udm452-udm453) Units=km Length=0.00998339 bus1=udm453.1.2 bus2=udm452.1.2 switch=n enabled=y phases=2 Linecode=1P_UG_AL_1/0_Brenau_0_416_0_2_2

New Line.l(r:udm453-udt124lv) Units=km Length=0.00997339 bus1=udt124lv.1.2 bus2=udm453.1.2 switch=n enabled=y phases=2 Linecode=1P_UG_AL_1/0_Brenau_0_416_0_2_2

New Line.l(r:p1ulv48862-udm454) Units=km Length=0.027958000000000004 bus1=udm454.1.2 bus2=p1ulv48862.1.2 switch=n enabled=y phases=2 Linecode=1P_UG_AL_1/0_Brenau_0_416_0_2_2

New Line.l(r:udm454-udt124lv) Units=km Length=0.0199665 bus1=udt124lv.1.2 bus2=udm454.1.2 switch=n enabled=y phases=2 Linecode=1P_UG_AL_1/0_Brenau_0_416_0_2_2

New Line.l(r:p1ulv158-udm455) Units=km Length=0.014408000000000002 bus1=udm455.1.2 bus2=p1ulv158.1.2 switch=n enabled=y phases=2 Linecode=1P_UG_AL_1/0_Brenau_0_416_0_2_2

New Line.l(r:udm455-udt125lv) Units=km Length=0.0151011 bus1=udt125lv.1.2 bus2=udm455.1.2 switch=n enabled=y phases=2 Linecode=1P_UG_AL_1/0_Brenau_0_416_0_2_2

New Line.l(r:p1ulv159-udm456) Units=km Length=0.0175433 bus1=udm456.1.2 bus2=p1ulv159.1.2 switch=n enabled=y phases=2 Linecode=1P_UG_AL_1/0_Brenau_0_416_0_2_2

New Line.l(r:udm456-udt125lv) Units=km Length=0.00998339 bus1=udt125lv.1.2 bus2=udm456.1.2 switch=n enabled=y phases=2 Linecode=1P_UG_AL_1/0_Brenau_0_416_0_2_2

New Line.l(r:p1ulv35580-udm457) Units=km Length=0.00718006 bus1=udm457.1.2 bus2=p1ulv35580.1.2 switch=n enabled=y phases=2 Linecode=1P_UG_AL_1/0_Brenau_0_416_0_2_2

New Line.l(r:udm457-udt125lv) Units=km Length=0.018551 bus1=udt125lv.1.2 bus2=udm457.1.2 switch=n enabled=y phases=2 Linecode=1P_UG_AL_1/0_Brenau_0_416_0_2_2

New Line.l(r:p1ulv160-udm458) Units=km Length=0.013379 bus1=udm458.1.2 bus2=p1ulv160.1.2 switch=n enabled=y phases=2 Linecode=1P_OH_AL_2/0_Rucina_0_416_0_2_2

New Line.l(r:p1ulv43910-udm460) Units=km Length=0.0140747 bus1=udm460.1.2 bus2=p1ulv43910.1.2 switch=n enabled=y phases=2 Linecode=1P_OH_AL_2/0_Rucina_0_416_0_2_2

New Line.l(r:udm458-udm460) Units=km Length=0.0374102 bus1=udm458.1.2 bus2=udm460.1.2 switch=n enabled=y phases=2 Linecode=1P_OH_AL_4/0_Zuzara_0_416_0_2_2

New Line.l(r:udm458-udt126lv) Units=km Length=0.0175271 bus1=udt126lv.1.2 bus2=udm458.1.2 switch=n enabled=y phases=2 Linecode=1P_OH_AL_2/0_Rucina_0_416_0_2_2

New Line.l(r:p1ulv48934-udm461) Units=km Length=0.0159336 bus1=udm461.1.2 bus2=p1ulv48934.1.2 switch=n enabled=y phases=2 Linecode=1P_OH_AL_2/0_Rucina_0_416_0_2_2

New Line.l(r:p1ulv28648-udm459) Units=km Length=0.018517200000000004 bus1=udm459.1.2 bus2=p1ulv28648.1.2 switch=n enabled=y phases=2 Linecode=1P_OH_AL_2/0_Rucina_0_416_0_2_2

New Line.l(r:udm459-udm461) Units=km Length=0.0837252 bus1=udm461.1.2 bus2=udm459.1.2 switch=n enabled=y phases=2 Linecode=1P_OH_AL_4/0_Zuzara_0_416_0_2_2

New Line.l(r:udm461-udt126lv) Units=km Length=0.0175169 bus1=udt126lv.1.2 bus2=udm461.1.2 switch=n enabled=y phases=2 Linecode=1P_OH_AL_2/0_Rucina_0_416_0_2_2

New Line.l(r:p1ulv161-udt127lv) Units=km Length=0.0200361 bus1=udt127lv.1.2 bus2=p1ulv161.1.2 switch=n enabled=y phases=2 Linecode=1P_OH_AL_2/0_Rucina_0_416_0_2_2

New Line.l(r:p1ulv45530-udt127lv) Units=km Length=0.0131432 bus1=udt127lv.1.2 bus2=p1ulv45530.1.2 switch=n enabled=y phases=2 Linecode=1P_OH_AL_2/0_Rucina_0_416_0_2_2

New Line.l(r:p1ulv26860-udm463) Units=km Length=0.0140536 bus1=udm463.1.2 bus2=p1ulv26860.1.2 switch=n enabled=y phases=2 Linecode=1P_OH_AL_2/0_Rucina_0_416_0_2_2

New Line.l(r:p1ulv38136-udm463) Units=km Length=0.0178846 bus1=udm463.1.2 bus2=p1ulv38136.1.2 switch=n enabled=y phases=2 Linecode=1P_OH_AL_2/0_Rucina_0_416_0_2_2

New Line.l(r:udm463-udt127lv) Units=km Length=0.0184011 bus1=udt127lv.1.2 bus2=udm463.1.2 switch=n enabled=y phases=2 Linecode=1P_OH_AL_2/0_Rucina_0_416_0_2_2

New Line.l(r:p1ulv29717-udt128lv) Units=km Length=0.021361 bus1=udt128lv.1.2 bus2=p1ulv29717.1.2 switch=n enabled=y phases=2 Linecode=1P_OH_AL_2/0_Rucina_0_416_0_2_2

New Line.l(r:p1ulv30516-udt128lv) Units=km Length=0.0437419 bus1=udt128lv.1.2 bus2=p1ulv30516.1.2 switch=n enabled=y phases=2 Linecode=1P_OH_AL_4/0_Zuzara_0_416_0_2_2

New Line.l(r:p1ulv162-udm466) Units=km Length=0.0231524 bus1=udm466.1.2 bus2=p1ulv162.1.2 switch=n enabled=y phases=2 Linecode=1P_OH_AL_2/0_Rucina_0_416_0_2_2

New Line.l(r:p1ulv31172-udm471) Units=km Length=0.0162396 bus1=udm471.1.2 bus2=p1ulv31172.1.2 switch=n enabled=y phases=2 Linecode=1P_OH_AL_2/0_Rucina_0_416_0_2_2

New Line.l(r:p1ulv29365-udm468) Units=km Length=0.0133285 bus1=udm468.1.2 bus2=p1ulv29365.1.2 switch=n enabled=y phases=2 Linecode=1P_OH_AL_2/0_Rucina_0_416_0_2_2

New Line.l(r:udm468-udm471) Units=km Length=0.018094 bus1=udm471.1.2 bus2=udm468.1.2 switch=n enabled=y phases=2 Linecode=1P_OH_AL_2/0_Rucina_0_416_0_2_2

New Line.l(r:udm466-udm471) Units=km Length=0.018094 bus1=udm466.1.2 bus2=udm471.1.2 switch=n enabled=y phases=2 Linecode=1P_OH_AL_2/0_Rucina_0_416_0_2_2

New Line.l(r:udm466-udt128lv) Units=km Length=0.018084 bus1=udt128lv.1.2 bus2=udm466.1.2 switch=n enabled=y phases=2 Linecode=1P_OH_AL_2/0_Rucina_0_416_0_2_2

New Line.l(r:p1ulv33376-udm472) Units=km Length=0.0256625 bus1=udm472.1.2 bus2=p1ulv33376.1.2 switch=n enabled=y phases=2 Linecode=1P_OH_AL_2/0_Rucina_0_416_0_2_2

New Line.l(r:p1ulv26479-udm467) Units=km Length=0.0217758 bus1=udm467.1.2 bus2=p1ulv26479.1.2 switch=n enabled=y phases=2 Linecode=1P_OH_AL_2/0_Rucina_0_416_0_2_2

New Line.l(r:udm467-udm472) Units=km Length=0.018084 bus1=udm472.1.2 bus2=udm467.1.2 switch=n enabled=y phases=2 Linecode=1P_OH_AL_2/0_Rucina_0_416_0_2_2

New Line.l(r:udm472-udt128lv) Units=km Length=0.018094 bus1=udt128lv.1.2 bus2=udm472.1.2 switch=n enabled=y phases=2 Linecode=1P_OH_AL_2/0_Rucina_0_416_0_2_2

New Line.l(r:p1ulv163-udt129lv) Units=km Length=0.0118214 bus1=udt129lv.1.2 bus2=p1ulv163.1.2 switch=n enabled=y phases=2 Linecode=1P_OH_AL_2/0_Rucina_0_416_0_2_2

New Line.l(r:p1ulv27718-udt129lv) Units=km Length=0.0189987 bus1=udt129lv.1.2 bus2=p1ulv27718.1.2 switch=n enabled=y phases=2 Linecode=1P_OH_AL_2/0_Rucina_0_416_0_2_2

New Line.l(r:p1ulv36698-udm475) Units=km Length=0.023710700000000005 bus1=udm475.1.2 bus2=p1ulv36698.1.2 switch=n enabled=y phases=2 Linecode=1P_OH_AL_2/0_Rucina_0_416_0_2_2

New Line.l(r:udm475-udt129lv) Units=km Length=0.0184008 bus1=udt129lv.1.2 bus2=udm475.1.2 switch=n enabled=y phases=2 Linecode=1P_OH_AL_2/0_Rucina_0_416_0_2_2

New Line.l(r:p1ulv50388-udm476) Units=km Length=0.0189687 bus1=udm476.1.2 bus2=p1ulv50388.1.2 switch=n enabled=y phases=2 Linecode=1P_OH_AL_2/0_Rucina_0_416_0_2_2

New Line.l(r:udm476-udt129lv) Units=km Length=0.0184008 bus1=udt129lv.1.2 bus2=udm476.1.2 switch=n enabled=y phases=2 Linecode=1P_OH_AL_2/0_Rucina_0_416_0_2_2

New Line.l(r:p1ulv36909-udt130lv) Units=km Length=0.0217259 bus1=udt130lv.1.2 bus2=p1ulv36909.1.2 switch=n enabled=y phases=2 Linecode=1P_OH_AL_2/0_Rucina_0_416_0_2_2

New Line.l(r:p1ulv164-udm477) Units=km Length=0.0207645 bus1=udm477.1.2 bus2=p1ulv164.1.2 switch=n enabled=y phases=2 Linecode=1P_OH_AL_2/0_Rucina_0_416_0_2_2

New Line.l(r:p1ulv45745-udm481) Units=km Length=0.0118498 bus1=udm481.1.2 bus2=p1ulv45745.1.2 switch=n enabled=y phases=2 Linecode=1P_OH_AL_2/0_Rucina_0_416_0_2_2

New Line.l(r:p1ulv50600-udm482) Units=km Length=0.0261799 bus1=udm482.1.2 bus2=p1ulv50600.1.2 switch=n enabled=y phases=2 Linecode=1P_OH_AL_2/0_Rucina_0_416_0_2_2

New Line.l(r:udm481-udm482) Units=km Length=0.0545107 bus1=udm481.1.2 bus2=udm482.1.2 switch=n enabled=y phases=2 Linecode=1P_OH_AL_4/0_Zuzara_0_416_0_2_2

New Line.l(r:udm477-udm481) Units=km Length=0.0198934 bus1=udm477.1.2 bus2=udm481.1.2 switch=n enabled=y phases=2 Linecode=1P_OH_AL_2/0_Rucina_0_416_0_2_2

New Line.l(r:udm477-udt130lv) Units=km Length=0.019893 bus1=udt130lv.1.2 bus2=udm477.1.2 switch=n enabled=y phases=2 Linecode=1P_OH_AL_2/0_Rucina_0_416_0_2_2

New Line.l(r:p1ulv42317-udm480) Units=km Length=0.0179861 bus1=udm480.1.2 bus2=p1ulv42317.1.2 switch=n enabled=y phases=2 Linecode=1P_OH_AL_2/0_Rucina_0_416_0_2_2

New Line.l(r:p1ulv40866-udm479) Units=km Length=0.017643900000000004 bus1=udm479.1.2 bus2=p1ulv40866.1.2 switch=n enabled=y phases=2 Linecode=1P_OH_AL_2/0_Rucina_0_416_0_2_2

New Line.l(r:udm479-udm480) Units=km Length=0.0198934 bus1=udm480.1.2 bus2=udm479.1.2 switch=n enabled=y phases=2 Linecode=1P_OH_AL_2/0_Rucina_0_416_0_2_2

New Line.l(r:udm480-udt130lv) Units=km Length=0.0198934 bus1=udt130lv.1.2 bus2=udm480.1.2 switch=n enabled=y phases=2 Linecode=1P_OH_AL_2/0_Rucina_0_416_0_2_2

New Line.l(r:p1ulv165-udt131lv) Units=km Length=0.0207098 bus1=udt131lv.1.2 bus2=p1ulv165.1.2 switch=n enabled=y phases=2 Linecode=1P_OH_AL_2/0_Rucina_0_416_0_2_2

New Line.l(r:p1ulv34649-udm484) Units=km Length=0.0196653 bus1=udm484.1.2 bus2=p1ulv34649.1.2 switch=n enabled=y phases=2 Linecode=1P_OH_AL_2/0_Rucina_0_416_0_2_2

New Line.l(r:udm484-udt131lv) Units=km Length=0.0180666 bus1=udt131lv.1.2 bus2=udm484.1.2 switch=n enabled=y phases=2 Linecode=1P_OH_AL_2/0_Rucina_0_416_0_2_2

New Line.l(r:p1ulv41252-udt132lv) Units=km Length=0.014273100000000002 bus1=udt132lv.1.2 bus2=p1ulv41252.1.2 switch=n enabled=y phases=2 Linecode=1P_OH_AL_2/0_Rucina_0_416_0_2_2

New Line.l(r:p1ulv44479-udt132lv) Units=km Length=0.0170302 bus1=udt132lv.1.2 bus2=p1ulv44479.1.2 switch=n enabled=y phases=2 Linecode=1P_OH_AL_2/0_Rucina_0_416_0_2_2

New Line.l(r:p1ulv166-udm485) Units=km Length=0.016062 bus1=udm485.1.2 bus2=p1ulv166.1.2 switch=n enabled=y phases=2 Linecode=1P_OH_AL_2/0_Rucina_0_416_0_2_2

New Line.l(r:udm485-udt132lv) Units=km Length=0.0183788 bus1=udt132lv.1.2 bus2=udm485.1.2 switch=n enabled=y phases=2 Linecode=1P_OH_AL_2/0_Rucina_0_416_0_2_2

New Line.l(r:p1ulv27252-udm486) Units=km Length=0.018608 bus1=udm486.1.2 bus2=p1ulv27252.1.2 switch=n enabled=y phases=2 Linecode=1P_OH_AL_2/0_Rucina_0_416_0_2_2

New Line.l(r:p1ulv44109-udm486) Units=km Length=0.0169165 bus1=udm486.1.2 bus2=p1ulv44109.1.2 switch=n enabled=y phases=2 Linecode=1P_OH_AL_2/0_Rucina_0_416_0_2_2

New Line.l(r:p1ulv48793-udm486) Units=km Length=0.0171057 bus1=udm486.1.2 bus2=p1ulv48793.1.2 switch=n enabled=y phases=2 Linecode=1P_OH_AL_2/0_Rucina_0_416_0_2_2

New Line.l(r:p1ulv49169-udm486) Units=km Length=0.0156363 bus1=udm486.1.2 bus2=p1ulv49169.1.2 switch=n enabled=y phases=2 Linecode=1P_OH_AL_2/0_Rucina_0_416_0_2_2

New Line.l(r:udm486-udt132lv) Units=km Length=0.0183792 bus1=udt132lv.1.2 bus2=udm486.1.2 switch=n enabled=y phases=2 Linecode=1P_OH_AL_2/0_Rucina_0_416_0_2_2

New Line.l(r:p1ulv168-udm493) Units=km Length=0.0140928 bus1=udm493.1.2 bus2=p1ulv168.1.2 switch=n enabled=y phases=2 Linecode=1P_UG_AL_1/0_Brenau_0_416_0_2_2

New Line.l(r:udm493-udt134lv) Units=km Length=0.00917829 bus1=udt134lv.1.2 bus2=udm493.1.2 switch=n enabled=y phases=2 Linecode=1P_UG_AL_1/0_Brenau_0_416_0_2_2

New Line.l(r:p1ulv169-udm494) Units=km Length=0.0153785 bus1=udm494.1.2 bus2=p1ulv169.1.2 switch=n enabled=y phases=2 Linecode=1P_UG_AL_4/0_Sweetbriar_0_416_0_2_2

New Line.l(r:udm494-udt134lv) Units=km Length=0.0183474 bus1=udt134lv.1.2 bus2=udm494.1.2 switch=n enabled=y phases=2 Linecode=1P_UG_AL_4/0_Sweetbriar_0_416_0_2_2

New Line.l(r:p1ulv171-udt136lv) Units=km Length=0.040966 bus1=udt136lv.1.2 bus2=p1ulv171.1.2 switch=n enabled=y phases=2 Linecode=1P_OH_AL_4/0_Zuzara_0_416_0_2_2

New Line.l(r:p1ulv38215-udt136lv) Units=km Length=0.0186392 bus1=udt136lv.1.2 bus2=p1ulv38215.1.2 switch=n enabled=y phases=2 Linecode=1P_OH_AL_2/0_Rucina_0_416_0_2_2

New Line.l(r:p1ulv42903-udt137lv) Units=km Length=0.0336534 bus1=udt137lv.1.2 bus2=p1ulv42903.1.2 switch=n enabled=y phases=2 Linecode=1P_OH_AL_4/0_Zuzara_0_416_0_2_2

New Line.l(r:p1ulv172-udm498) Units=km Length=0.0184938 bus1=udm498.1.2 bus2=p1ulv172.1.2 switch=n enabled=y phases=2 Linecode=1P_OH_AL_2/0_Rucina_0_416_0_2_2

New Line.l(r:udm498-udt137lv) Units=km Length=0.0305266 bus1=udt137lv.1.2 bus2=udm498.1.2 switch=n enabled=y phases=2 Linecode=1P_OH_AL_4/0_Zuzara_0_416_0_2_2

New Line.l(r:p1ulv42520-udm499) Units=km Length=0.0351903 bus1=udm499.1.2 bus2=p1ulv42520.1.2 switch=n enabled=y phases=2 Linecode=1P_OH_AL_4/0_Zuzara_0_416_0_2_2

New Line.l(r:udm499-udt137lv) Units=km Length=0.0151398 bus1=udt137lv.1.2 bus2=udm499.1.2 switch=n enabled=y phases=2 Linecode=1P_OH_AL_2/0_Rucina_0_416_0_2_2

New Line.l(r:p1ulv174-udt138lv) Units=km Length=0.00750193 bus1=udt138lv.1.2 bus2=p1ulv174.1.2 switch=n enabled=y phases=2 Linecode=1P_UG_AL_4/0_Sweetbriar_0_416_0_2_2

New Line.l(r:p1ulv173-udm501) Units=km Length=0.0132957 bus1=udm501.1.2 bus2=p1ulv173.1.2 switch=n enabled=y phases=2 Linecode=1P_UG_AL_1/0_Brenau_0_416_0_2_2

New Line.l(r:udm501-udt138lv) Units=km Length=0.00951267 bus1=udt138lv.1.2 bus2=udm501.1.2 switch=n enabled=y phases=2 Linecode=1P_UG_AL_1/0_Brenau_0_416_0_2_2

New Line.l(r:p1ulv175-udt139lv) Units=km Length=0.0142985 bus1=udt139lv.1.2 bus2=p1ulv175.1.2 switch=n enabled=y phases=2 Linecode=1P_UG_AL_1/0_Brenau_0_416_0_2_2

New Line.l(r:p1ulv33574-udm504) Units=km Length=0.0172917 bus1=udm504.1.2 bus2=p1ulv33574.1.2 switch=n enabled=y phases=2 Linecode=1P_UG_AL_1/0_Brenau_0_416_0_2_2

New Line.l(r:udm504-udt139lv) Units=km Length=0.00970561 bus1=udt139lv.1.2 bus2=udm504.1.2 switch=n enabled=y phases=2 Linecode=1P_UG_AL_1/0_Brenau_0_416_0_2_2

New Line.l(r:p1ulv35356-udm505) Units=km Length=0.0195433 bus1=udm505.1.2 bus2=p1ulv35356.1.2 switch=n enabled=y phases=2 Linecode=1P_UG_AL_1/0_Brenau_0_416_0_2_2

New Line.l(r:udm505-udt139lv) Units=km Length=0.00969562 bus1=udt139lv.1.2 bus2=udm505.1.2 switch=n enabled=y phases=2 Linecode=1P_UG_AL_1/0_Brenau_0_416_0_2_2

New Line.l(r:p1ulv29364-udt140lv) Units=km Length=0.0149812 bus1=udt140lv.1.2 bus2=p1ulv29364.1.2 switch=n enabled=y phases=2 Linecode=1P_UG_AL_1/0_Brenau_0_416_0_2_2

New Line.l(r:p1ulv42902-udt140lv) Units=km Length=0.0176506 bus1=udt140lv.1.2 bus2=p1ulv42902.1.2 switch=n enabled=y phases=2 Linecode=1P_UG_AL_1/0_Brenau_0_416_0_2_2

New Line.l(r:p1ulv36555-udm510) Units=km Length=0.0176365 bus1=udm510.1.2 bus2=p1ulv36555.1.2 switch=n enabled=y phases=2 Linecode=1P_UG_AL_1/0_Brenau_0_416_0_2_2

New Line.l(r:p1ulv35138-udm509) Units=km Length=0.0152808 bus1=udm509.1.2 bus2=p1ulv35138.1.2 switch=n enabled=y phases=2 Linecode=1P_UG_AL_1/0_Brenau_0_416_0_2_2

New Line.l(r:p1ulv27251-udm507) Units=km Length=0.0139805 bus1=udm507.1.2 bus2=p1ulv27251.1.2 switch=n enabled=y phases=2 Linecode=1P_UG_AL_1/0_Brenau_0_416_0_2_2

New Line.l(r:udm507-udm509) Units=km Length=0.00970561 bus1=udm509.1.2 bus2=udm507.1.2 switch=n enabled=y phases=2 Linecode=1P_UG_AL_1/0_Brenau_0_416_0_2_2

New Line.l(r:udm509-udm510) Units=km Length=0.00969528 bus1=udm510.1.2 bus2=udm509.1.2 switch=n enabled=y phases=2 Linecode=1P_UG_AL_1/0_Brenau_0_416_0_2_2

New Line.l(r:udm510-udt140lv) Units=km Length=0.00970561 bus1=udt140lv.1.2 bus2=udm510.1.2 switch=n enabled=y phases=2 Linecode=1P_UG_AL_1/0_Brenau_0_416_0_2_2

New Line.l(r:p1ulv41110-udm511) Units=km Length=0.014101 bus1=udm511.1.2 bus2=p1ulv41110.1.2 switch=n enabled=y phases=2 Linecode=1P_UG_AL_1/0_Brenau_0_416_0_2_2

New Line.l(r:p1ulv45744-udm511) Units=km Length=0.0413571 bus1=udm511.1.2 bus2=p1ulv45744.1.2 switch=n enabled=y phases=2 Linecode=1P_UG_AL_1/0_Brenau_0_416_0_2_2

New Line.l(r:p1ulv43975-udm513) Units=km Length=0.014143300000000001 bus1=udm513.1.2 bus2=p1ulv43975.1.2 switch=n enabled=y phases=2 Linecode=1P_UG_AL_1/0_Brenau_0_416_0_2_2

New Line.l(r:p1ulv47182-udm515) Units=km Length=0.0160395 bus1=udm515.1.2 bus2=p1ulv47182.1.2 switch=n enabled=y phases=2 Linecode=1P_UG_AL_1/0_Brenau_0_416_0_2_2

New Line.l(r:p1ulv176-udm506) Units=km Length=0.0148046 bus1=udm506.1.2 bus2=p1ulv176.1.2 switch=n enabled=y phases=2 Linecode=1P_UG_AL_1/0_Brenau_0_416_0_2_2

New Line.l(r:udm506-udm515) Units=km Length=0.00969562 bus1=udm515.1.2 bus2=udm506.1.2 switch=n enabled=y phases=2 Linecode=1P_UG_AL_1/0_Brenau_0_416_0_2_2

New Line.l(r:udm513-udm515) Units=km Length=0.00970561 bus1=udm513.1.2 bus2=udm515.1.2 switch=n enabled=y phases=2 Linecode=1P_UG_AL_1/0_Brenau_0_416_0_2_2

New Line.l(r:udm511-udm513) Units=km Length=0.00969528 bus1=udm511.1.2 bus2=udm513.1.2 switch=n enabled=y phases=2 Linecode=1P_UG_AL_1/0_Brenau_0_416_0_2_2

New Line.l(r:udm511-udt140lv) Units=km Length=0.00969562 bus1=udt140lv.1.2 bus2=udm511.1.2 switch=n enabled=y phases=2 Linecode=1P_UG_AL_4/0_Sweetbriar_0_416_0_2_2

New Line.l(r:p1ulv177-udt141lv) Units=km Length=0.015813 bus1=udt141lv.1.2 bus2=p1ulv177.1.2 switch=n enabled=y phases=2 Linecode=1P_UG_AL_1/0_Brenau_0_416_0_2_2

New Line.l(r:p1ulv28518-udt141lv) Units=km Length=0.0161628 bus1=udt141lv.1.2 bus2=p1ulv28518.1.2 switch=n enabled=y phases=2 Linecode=1P_UG_AL_1/0_Brenau_0_416_0_2_2

New Line.l(r:p1ulv37982-udm519) Units=km Length=0.0166014 bus1=udm519.1.2 bus2=p1ulv37982.1.2 switch=n enabled=y phases=2 Linecode=1P_UG_AL_1/0_Brenau_0_416_0_2_2

New Line.l(r:udm519-udt141lv) Units=km Length=0.018856 bus1=udt141lv.1.2 bus2=udm519.1.2 switch=n enabled=y phases=2 Linecode=1P_UG_AL_1/0_Brenau_0_416_0_2_2

New Line.l(r:p1ulv38356-udm520) Units=km Length=0.0147444 bus1=udm520.1.2 bus2=p1ulv38356.1.2 switch=n enabled=y phases=2 Linecode=1P_UG_AL_1/0_Brenau_0_416_0_2_2

New Line.l(r:p1ulv50599-udm521) Units=km Length=0.015875 bus1=udm521.1.2 bus2=p1ulv50599.1.2 switch=n enabled=y phases=2 Linecode=1P_UG_AL_1/0_Brenau_0_416_0_2_2

New Line.l(r:p1ulv27069-udm517) Units=km Length=0.0200407 bus1=udm517.1.2 bus2=p1ulv27069.1.2 switch=n enabled=y phases=2 Linecode=1P_UG_AL_1/0_Brenau_0_416_0_2_2

New Line.l(r:udm517-udm521) Units=km Length=0.0387509 bus1=udm521.1.2 bus2=udm517.1.2 switch=n enabled=y phases=2 Linecode=1P_UG_AL_1/0_Brenau_0_416_0_2_2

New Line.l(r:udm520-udm521) Units=km Length=0.0187295 bus1=udm520.1.2 bus2=udm521.1.2 switch=n enabled=y phases=2 Linecode=1P_UG_AL_1/0_Brenau_0_416_0_2_2

New Line.l(r:udm520-udt141lv) Units=km Length=0.00943274 bus1=udt141lv.1.2 bus2=udm520.1.2 switch=n enabled=y phases=2 Linecode=1P_UG_AL_2/0_Converse_0_416_0_2_2

New Line.l(r:p1ulv178-udm522) Units=km Length=0.0414533 bus1=udm522.1.2 bus2=p1ulv178.1.2 switch=n enabled=y phases=2 Linecode=1P_UG_AL_1/0_Brenau_0_416_0_2_2

New Line.l(r:p1ulv26067-udm522) Units=km Length=0.01411 bus1=udm522.1.2 bus2=p1ulv26067.1.2 switch=n enabled=y phases=2 Linecode=1P_UG_AL_1/0_Brenau_0_416_0_2_2

New Line.l(r:p1ulv42838-udm525) Units=km Length=0.0285273 bus1=udm525.1.2 bus2=p1ulv42838.1.2 switch=n enabled=y phases=2 Linecode=1P_UG_AL_1/0_Brenau_0_416_0_2_2

New Line.l(r:udm522-udm525) Units=km Length=0.00961791 bus1=udm522.1.2 bus2=udm525.1.2 switch=n enabled=y phases=2 Linecode=1P_UG_AL_1/0_Brenau_0_416_0_2_2

New Line.l(r:udm522-udt142lv) Units=km Length=0.00961832 bus1=udt142lv.1.2 bus2=udm522.1.2 switch=n enabled=y phases=2 Linecode=1P_UG_AL_1/0_Brenau_0_416_0_2_2

New Line.l(r:p1ulv40803-udm524) Units=km Length=0.030223600000000003 bus1=udm524.1.2 bus2=p1ulv40803.1.2 switch=n enabled=y phases=2 Linecode=1P_UG_AL_1/0_Brenau_0_416_0_2_2

New Line.l(r:udm524-udt142lv) Units=km Length=0.0384825 bus1=udt142lv.1.2 bus2=udm524.1.2 switch=n enabled=y phases=2 Linecode=1P_UG_AL_1/0_Brenau_0_416_0_2_2

New Line.l(r:p1ulv179-udt143lv) Units=km Length=0.013469400000000001 bus1=udt143lv.1.2 bus2=p1ulv179.1.2 switch=n enabled=y phases=2 Linecode=1P_UG_AL_1/0_Brenau_0_416_0_2_2

New Line.l(r:p1ulv37983-udm527) Units=km Length=0.0138805 bus1=udm527.1.2 bus2=p1ulv37983.1.2 switch=n enabled=y phases=2 Linecode=1P_UG_AL_1/0_Brenau_0_416_0_2_2

New Line.l(r:udm527-udt143lv) Units=km Length=0.009934230000000002 bus1=udt143lv.1.2 bus2=udm527.1.2 switch=n enabled=y phases=2 Linecode=1P_UG_AL_1/0_Brenau_0_416_0_2_2

New Line.l(r:p1ulv39175-udm528) Units=km Length=0.0376149 bus1=udm528.1.2 bus2=p1ulv39175.1.2 switch=n enabled=y phases=2 Linecode=1P_UG_AL_1/0_Brenau_0_416_0_2_2

New Line.l(r:udm528-udt143lv) Units=km Length=0.009934230000000002 bus1=udt143lv.1.2 bus2=udm528.1.2 switch=n enabled=y phases=2 Linecode=1P_UG_AL_1/0_Brenau_0_416_0_2_2

New Line.l(r:p1ulv36842-udt144lv) Units=km Length=0.0187318 bus1=udt144lv.1.2 bus2=p1ulv36842.1.2 switch=n enabled=y phases=2 Linecode=1P_UG_AL_1/0_Brenau_0_416_0_2_2

New Line.l(r:p1ulv33313-udm530) Units=km Length=0.0157232 bus1=udm530.1.2 bus2=p1ulv33313.1.2 switch=n enabled=y phases=2 Linecode=1P_UG_AL_1/0_Brenau_0_416_0_2_2

New Line.l(r:p1ulv36492-udm531) Units=km Length=0.0175387 bus1=udm531.1.2 bus2=p1ulv36492.1.2 switch=n enabled=y phases=2 Linecode=1P_UG_AL_1/0_Brenau_0_416_0_2_2

New Line.l(r:p1ulv39592-udm533) Units=km Length=0.0167822 bus1=udm533.1.2 bus2=p1ulv39592.1.2 switch=n enabled=y phases=2 Linecode=1P_UG_AL_1/0_Brenau_0_416_0_2_2

New Line.l(r:udm531-udm533) Units=km Length=0.009934230000000002 bus1=udm531.1.2 bus2=udm533.1.2 switch=n enabled=y phases=2 Linecode=1P_UG_AL_1/0_Brenau_0_416_0_2_2

New Line.l(r:udm530-udm531) Units=km Length=0.009934230000000002 bus1=udm530.1.2 bus2=udm531.1.2 switch=n enabled=y phases=2 Linecode=1P_UG_AL_1/0_Brenau_0_416_0_2_2

New Line.l(r:udm530-udt144lv) Units=km Length=0.00993453 bus1=udt144lv.1.2 bus2=udm530.1.2 switch=n enabled=y phases=2 Linecode=1P_UG_AL_2/0_Converse_0_416_0_2_2

New Line.l(r:p1ulv44048-udm534) Units=km Length=0.014809200000000002 bus1=udm534.1.2 bus2=p1ulv44048.1.2 switch=n enabled=y phases=2 Linecode=1P_UG_AL_1/0_Brenau_0_416_0_2_2

New Line.l(r:p1ulv45466-udm534) Units=km Length=0.0181034 bus1=udm534.1.2 bus2=p1ulv45466.1.2 switch=n enabled=y phases=2 Linecode=1P_UG_AL_1/0_Brenau_0_416_0_2_2

New Line.l(r:p1ulv45865-udm536) Units=km Length=0.0184385 bus1=udm536.1.2 bus2=p1ulv45865.1.2 switch=n enabled=y phases=2 Linecode=1P_UG_AL_1/0_Brenau_0_416_0_2_2

New Line.l(r:p1ulv180-udm529) Units=km Length=0.0140402 bus1=udm529.1.2 bus2=p1ulv180.1.2 switch=n enabled=y phases=2 Linecode=1P_UG_AL_1/0_Brenau_0_416_0_2_2

New Line.l(r:udm529-udm536) Units=km Length=0.009934230000000002 bus1=udm536.1.2 bus2=udm529.1.2 switch=n enabled=y phases=2 Linecode=1P_UG_AL_1/0_Brenau_0_416_0_2_2

New Line.l(r:udm534-udm536) Units=km Length=0.009934230000000002 bus1=udm534.1.2 bus2=udm536.1.2 switch=n enabled=y phases=2 Linecode=1P_UG_AL_1/0_Brenau_0_416_0_2_2

New Line.l(r:udm534-udt144lv) Units=km Length=0.009934230000000002 bus1=udt144lv.1.2 bus2=udm534.1.2 switch=n enabled=y phases=2 Linecode=1P_UG_AL_4/0_Sweetbriar_0_416_0_2_2

New Line.l(r:p1ulv31917-udt148lv) Units=km Length=0.0110806 bus1=udt148lv.1.2 bus2=p1ulv31917.1.2 switch=n enabled=y phases=2 Linecode=1P_UG_AL_1/0_Brenau_0_416_0_2_2

New Line.l(r:p1ulv184-udm540) Units=km Length=0.0155657 bus1=udm540.1.2 bus2=p1ulv184.1.2 switch=n enabled=y phases=2 Linecode=1P_UG_AL_4/0_Sweetbriar_0_416_0_2_2

New Line.l(r:udm540-udt148lv) Units=km Length=0.026792000000000003 bus1=udt148lv.1.2 bus2=udm540.1.2 switch=n enabled=y phases=2 Linecode=1P_UG_AL_4/0_Sweetbriar_0_416_0_2_2

New Line.l(r:p1ulv28297-udm541) Units=km Length=0.0159082 bus1=udm541.1.2 bus2=p1ulv28297.1.2 switch=n enabled=y phases=2 Linecode=1P_UG_AL_1/0_Brenau_0_416_0_2_2

New Line.l(r:p1ulv38891-udm541) Units=km Length=0.014495 bus1=udm541.1.2 bus2=p1ulv38891.1.2 switch=n enabled=y phases=2 Linecode=1P_UG_AL_1/0_Brenau_0_416_0_2_2
