New Line.l(r:p1ulv3571-udt1689lv) Units=km Length=0.0220362 bus1=udt1689lv.1.2 bus2=p1ulv3571.1.2 switch=n enabled=y phases=2 Linecode=1P_UG_AL_1/0_Brenau_0_416_0_2_2

New Line.l(r:p1ulv18692-udt1689lv) Units=km Length=0.035263 bus1=udt1689lv.1.2 bus2=p1ulv18692.1.2 switch=n enabled=y phases=2 Linecode=1P_UG_AL_1/0_Brenau_0_416_0_2_2

New Line.l(r:p1ulv7253-udm12768) Units=km Length=0.0232912 bus1=udm12768.1.2 bus2=p1ulv7253.1.2 switch=n enabled=y phases=2 Linecode=1P_UG_AL_1/0_Brenau_0_416_0_2_2

New Line.l(r:udm12768-udt3241lv) Units=km Length=0.0193012 bus1=udt3241lv.1.2 bus2=udm12768.1.2 switch=n enabled=y phases=2 Linecode=1P_UG_AL_1/0_Brenau_0_416_0_2_2

New Line.l(r:p1ulv25597-udm12769) Units=km Length=0.0257383 bus1=udm12769.1.2 bus2=p1ulv25597.1.2 switch=n enabled=y phases=2 Linecode=1P_UG_AL_1/0_Brenau_0_416_0_2_2

New Line.l(r:udm12769-udt3241lv) Units=km Length=0.00965479 bus1=udt3241lv.1.2 bus2=udm12769.1.2 switch=n enabled=y phases=2 Linecode=1P_UG_AL_1/0_Brenau_0_416_0_2_2

New Line.l(r:p1ulv7254-udt3242lv) Units=km Length=0.0371758 bus1=udt3242lv.1.2 bus2=p1ulv7254.1.2 switch=n enabled=y phases=2 Linecode=1P_OH_AL_4/0_Zuzara_0_416_0_2_2

New Line.l(r:p1ulv17050-udt3242lv) Units=km Length=0.0301006 bus1=udt3242lv.1.2 bus2=p1ulv17050.1.2 switch=n enabled=y phases=2 Linecode=1P_OH_AL_4/0_Zuzara_0_416_0_2_2

New Line.l(r:p1ulv7255-udm12772) Units=km Length=0.0342103 bus1=udm12772.1.2 bus2=p1ulv7255.1.2 switch=n enabled=y phases=2 Linecode=1P_OH_AL_4/0_Zuzara_0_416_0_2_2

New Line.l(r:udm12772-udt3243lv) Units=km Length=0.0193752 bus1=udt3243lv.1.2 bus2=udm12772.1.2 switch=n enabled=y phases=2 Linecode=1P_OH_AL_2/0_Rucina_0_416_0_2_2

New Line.l(r:p1ulv13465-udm12773) Units=km Length=0.025728300000000003 bus1=udm12773.1.2 bus2=p1ulv13465.1.2 switch=n enabled=y phases=2 Linecode=1P_OH_AL_2/0_Rucina_0_416_0_2_2

New Line.l(r:udm12773-udt3243lv) Units=km Length=0.0351947 bus1=udt3243lv.1.2 bus2=udm12773.1.2 switch=n enabled=y phases=2 Linecode=1P_OH_AL_4/0_Zuzara_0_416_0_2_2

New Line.l(r:p1ulv15453-udt3244lv) Units=km Length=0.0288238 bus1=udt3244lv.1.2 bus2=p1ulv15453.1.2 switch=n enabled=y phases=2 Linecode=1P_OH_AL_4/0_Zuzara_0_416_0_2_2

New Line.l(r:p1ulv7256-udm12774) Units=km Length=0.0294382 bus1=udm12774.1.2 bus2=p1ulv7256.1.2 switch=n enabled=y phases=2 Linecode=1P_OH_AL_4/0_Zuzara_0_416_0_2_2

New Line.l(r:udm12774-udt3244lv) Units=km Length=0.0155827 bus1=udt3244lv.1.2 bus2=udm12774.1.2 switch=n enabled=y phases=2 Linecode=1P_OH_AL_2/0_Rucina_0_416_0_2_2

New Line.l(r:p1ulv7257-udt3245lv) Units=km Length=0.0252852 bus1=udt3245lv.1.2 bus2=p1ulv7257.1.2 switch=n enabled=y phases=2 Linecode=1P_OH_AL_2/0_Rucina_0_416_0_2_2

New Line.l(r:p1ulv23308-udt3245lv) Units=km Length=0.0217555 bus1=udt3245lv.1.2 bus2=p1ulv23308.1.2 switch=n enabled=y phases=2 Linecode=1P_OH_AL_2/0_Rucina_0_416_0_2_2

New Line.l(r:p1ulv34335-udt3247lv) Units=km Length=0.0339149 bus1=udt3247lv.1.2 bus2=p1ulv34335.1.2 switch=n enabled=y phases=2 Linecode=1P_OH_AL_4/0_Zuzara_0_416_0_2_2

New Line.l(r:p1ulv7259-udm12784) Units=km Length=0.05657890000000001 bus1=udm12784.1.2 bus2=p1ulv7259.1.2 switch=n enabled=y phases=2 Linecode=1P_OH_AL_4/0_Zuzara_0_416_0_2_2

New Line.l(r:p1ulv7260-udm12785) Units=km Length=0.0483921 bus1=udm12785.1.2 bus2=p1ulv7260.1.2 switch=n enabled=y phases=2 Linecode=1P_OH_AL_4/0_Zuzara_0_416_0_2_2

New Line.l(r:p1ulv23234-udm12785) Units=km Length=0.0320833 bus1=udm12785.1.2 bus2=p1ulv23234.1.2 switch=n enabled=y phases=2 Linecode=1P_OH_AL_4/0_Zuzara_0_416_0_2_2

New Line.l(r:udm12784-udm12785) Units=km Length=0.0179107 bus1=udm12784.1.2 bus2=udm12785.1.2 switch=n enabled=y phases=2 Linecode=1P_OH_AL_2/0_Rucina_0_416_0_2_2

New Line.l(r:udm12784-udt3247lv) Units=km Length=0.0179064 bus1=udt3247lv.1.2 bus2=udm12784.1.2 switch=n enabled=y phases=2 Linecode=1P_OH_AL_2/0_Rucina_0_416_0_2_2

New Line.l(r:p1ulv20694-udm12787) Units=km Length=0.0330363 bus1=udm12787.1.2 bus2=p1ulv20694.1.2 switch=n enabled=y phases=2 Linecode=1P_OH_AL_4/0_Zuzara_0_416_0_2_2

New Line.l(r:p1ulv13671-udm12786) Units=km Length=0.0335225 bus1=udm12786.1.2 bus2=p1ulv13671.1.2 switch=n enabled=y phases=2 Linecode=1P_OH_AL_4/0_Zuzara_0_416_0_2_2

New Line.l(r:udm12786-udm12787) Units=km Length=0.0134885 bus1=udm12787.1.2 bus2=udm12786.1.2 switch=n enabled=y phases=2 Linecode=1P_OH_AL_2/0_Rucina_0_416_0_2_2

New Line.l(r:udm12787-udt3247lv) Units=km Length=0.0313947 bus1=udt3247lv.1.2 bus2=udm12787.1.2 switch=n enabled=y phases=2 Linecode=1P_OH_AL_4/0_Zuzara_0_416_0_2_2

New Line.l(r:p1ulv7261-udt3248lv) Units=km Length=0.026215 bus1=udt3248lv.1.2 bus2=p1ulv7261.1.2 switch=n enabled=y phases=2 Linecode=1P_OH_AL_2/0_Rucina_0_416_0_2_2

New Line.l(r:p1ulv7264-udt3248lv) Units=km Length=0.026215 bus1=udt3248lv.1.2 bus2=p1ulv7264.1.2 switch=n enabled=y phases=2 Linecode=1P_OH_AL_2/0_Rucina_0_416_0_2_2

New Line.l(r:p1ulv23741-udt3250lv) Units=km Length=0.0342446 bus1=udt3250lv.1.2 bus2=p1ulv23741.1.2 switch=n enabled=y phases=2 Linecode=1P_OH_AL_4/0_Zuzara_0_416_0_2_2

New Line.l(r:p1ulv23627-udm12796) Units=km Length=0.0147908 bus1=udm12796.1.2 bus2=p1ulv23627.1.2 switch=n enabled=y phases=2 Linecode=1P_OH_AL_2/0_Rucina_0_416_0_2_2

New Line.l(r:p1ulv7263-udm12795) Units=km Length=0.0530833 bus1=udm12795.1.2 bus2=p1ulv7263.1.2 switch=n enabled=y phases=2 Linecode=1P_OH_AL_4/0_Zuzara_0_416_0_2_2

New Line.l(r:udm12795-udm12796) Units=km Length=0.017756600000000004 bus1=udm12796.1.2 bus2=udm12795.1.2 switch=n enabled=y phases=2 Linecode=1P_OH_AL_2/0_Rucina_0_416_0_2_2

New Line.l(r:udm12796-udt3250lv) Units=km Length=0.0574154 bus1=udt3250lv.1.2 bus2=udm12796.1.2 switch=n enabled=y phases=2 Linecode=1P_OH_AL_4/0_Zuzara_0_416_0_2_2

New Line.l(r:p1ulv7265-udt3251lv) Units=km Length=0.0367145 bus1=udt3251lv.1.2 bus2=p1ulv7265.1.2 switch=n enabled=y phases=2 Linecode=1P_UG_AL_1/0_Brenau_0_416_0_2_2

New Line.l(r:p1ulv7266-udt3251lv) Units=km Length=0.0487991 bus1=udt3251lv.1.2 bus2=p1ulv7266.1.2 switch=n enabled=y phases=2 Linecode=1P_UG_AL_1/0_Brenau_0_416_0_2_2

New Line.l(r:p1ulv25237-udm12800) Units=km Length=0.0208062 bus1=udm12800.1.2 bus2=p1ulv25237.1.2 switch=n enabled=y phases=2 Linecode=1P_UG_AL_1/0_Brenau_0_416_0_2_2

New Line.l(r:udm12800-udt3251lv) Units=km Length=0.00998289 bus1=udt3251lv.1.2 bus2=udm12800.1.2 switch=n enabled=y phases=2 Linecode=1P_UG_AL_1/0_Brenau_0_416_0_2_2

New Line.l(r:p1ulv25500-udt3252lv) Units=km Length=0.0191091 bus1=udt3252lv.1.2 bus2=p1ulv25500.1.2 switch=n enabled=y phases=2 Linecode=1P_OH_AL_2/0_Rucina_0_416_0_2_2

New Line.l(r:p1ulv35993-udt3252lv) Units=km Length=0.0187506 bus1=udt3252lv.1.2 bus2=p1ulv35993.1.2 switch=n enabled=y phases=2 Linecode=1P_OH_AL_2/0_Rucina_0_416_0_2_2

New Line.l(r:p1ulv7267-udm12801) Units=km Length=0.022575000000000005 bus1=udm12801.1.2 bus2=p1ulv7267.1.2 switch=n enabled=y phases=2 Linecode=1P_OH_AL_2/0_Rucina_0_416_0_2_2

New Line.l(r:p1ulv25372-udm12801) Units=km Length=0.0170147 bus1=udm12801.1.2 bus2=p1ulv25372.1.2 switch=n enabled=y phases=2 Linecode=1P_OH_AL_2/0_Rucina_0_416_0_2_2

New Line.l(r:udm12801-udt3252lv) Units=km Length=0.0189481 bus1=udt3252lv.1.2 bus2=udm12801.1.2 switch=n enabled=y phases=2 Linecode=1P_OH_AL_2/0_Rucina_0_416_0_2_2

New Line.l(r:p1ulv8051-udm14381) Units=km Length=0.0349551 bus1=udm14381.1.2 bus2=p1ulv8051.1.2 switch=n enabled=y phases=2 Linecode=1P_UG_AL_1/0_Brenau_0_416_0_2_2

New Line.l(r:udm14381-udt3705lv) Units=km Length=0.0190682 bus1=udt3705lv.1.2 bus2=udm14381.1.2 switch=n enabled=y phases=2 Linecode=1P_UG_AL_1/0_Brenau_0_416_0_2_2

New Line.l(r:p1ulv45611-udm14382) Units=km Length=0.0346025 bus1=udm14382.1.2 bus2=p1ulv45611.1.2 switch=n enabled=y phases=2 Linecode=1P_UG_AL_1/0_Brenau_0_416_0_2_2

New Line.l(r:udm14382-udt3705lv) Units=km Length=0.0190631 bus1=udt3705lv.1.2 bus2=udm14382.1.2 switch=n enabled=y phases=2 Linecode=1P_UG_AL_1/0_Brenau_0_416_0_2_2

New Line.l(r:p1ulv40916-udt3706lv) Units=km Length=0.0297397 bus1=udt3706lv.1.2 bus2=p1ulv40916.1.2 switch=n enabled=y phases=2 Linecode=1P_OH_AL_4/0_Zuzara_0_416_0_2_2

New Line.l(r:p1ulv8052-udm14383) Units=km Length=0.032936 bus1=udm14383.1.2 bus2=p1ulv8052.1.2 switch=n enabled=y phases=2 Linecode=1P_UG_AL_1/0_Brenau_0_416_0_2_2

New Line.l(r:udm14383-udt3706lv) Units=km Length=0.0519579 bus1=udt3706lv.1.2 bus2=udm14383.1.2 switch=n enabled=y phases=2 Linecode=1P_OH_AL_4/0_Zuzara_0_416_0_2_2

New Line.l(r:p1ulv26560-udm14384) Units=km Length=0.0390869 bus1=udm14384.1.2 bus2=p1ulv26560.1.2 switch=n enabled=y phases=2 Linecode=1P_OH_AL_4/0_Zuzara_0_416_0_2_2

New Line.l(r:udm14384-udt3706lv) Units=km Length=0.0178351 bus1=udt3706lv.1.2 bus2=udm14384.1.2 switch=n enabled=y phases=2 Linecode=1P_OH_AL_2/0_Rucina_0_416_0_2_2

New Line.l(r:p1ulv8053-udm14386) Units=km Length=0.0221714 bus1=udm14386.1.2 bus2=p1ulv8053.1.2 switch=n enabled=y phases=2 Linecode=1P_OH_AL_2/0_Rucina_0_416_0_2_2

New Line.l(r:udm14386-udt3707lv) Units=km Length=0.0169115 bus1=udt3707lv.1.2 bus2=udm14386.1.2 switch=n enabled=y phases=2 Linecode=1P_OH_AL_2/0_Rucina_0_416_0_2_2

New Line.l(r:p1ulv49471-udm14387) Units=km Length=0.025405 bus1=udm14387.1.2 bus2=p1ulv49471.1.2 switch=n enabled=y phases=2 Linecode=1P_OH_AL_2/0_Rucina_0_416_0_2_2

New Line.l(r:udm14387-udt3707lv) Units=km Length=0.0169115 bus1=udt3707lv.1.2 bus2=udm14387.1.2 switch=n enabled=y phases=2 Linecode=1P_OH_AL_2/0_Rucina_0_416_0_2_2

New Line.l(r:p1ulv9770-udt3708lv) Units=km Length=0.024444800000000003 bus1=udt3708lv.1.2 bus2=p1ulv9770.1.2 switch=n enabled=y phases=2 Linecode=1P_OH_AL_2/0_Rucina_0_416_0_2_2

New Line.l(r:p1ulv8054-udm14388) Units=km Length=0.0285512 bus1=udm14388.1.2 bus2=p1ulv8054.1.2 switch=n enabled=y phases=2 Linecode=1P_OH_AL_4/0_Zuzara_0_416_0_2_2

New Line.l(r:udm14388-udt3708lv) Units=km Length=0.0148004 bus1=udt3708lv.1.2 bus2=udm14388.1.2 switch=n enabled=y phases=2 Linecode=1P_OH_AL_2/0_Rucina_0_416_0_2_2

New Line.l(r:p1ulv12974-udt3709lv) Units=km Length=0.017646700000000005 bus1=udt3709lv.1.2 bus2=p1ulv12974.1.2 switch=n enabled=y phases=2 Linecode=1P_OH_AL_2/0_Rucina_0_416_0_2_2

New Line.l(r:p1ulv8055-udm14390) Units=km Length=0.0229694 bus1=udm14390.1.2 bus2=p1ulv8055.1.2 switch=n enabled=y phases=2 Linecode=1P_OH_AL_2/0_Rucina_0_416_0_2_2

New Line.l(r:udm14390-udt3709lv) Units=km Length=0.0195577 bus1=udt3709lv.1.2 bus2=udm14390.1.2 switch=n enabled=y phases=2 Linecode=1P_OH_AL_2/0_Rucina_0_416_0_2_2

New Line.l(r:p1ulv8059-udt3710lv) Units=km Length=0.0400859 bus1=udt3710lv.1.2 bus2=p1ulv8059.1.2 switch=n enabled=y phases=2 Linecode=1P_OH_AL_4/0_Zuzara_0_416_0_2_2

New Line.l(r:p1ulv8056-udm14392) Units=km Length=0.036543 bus1=udm14392.1.2 bus2=p1ulv8056.1.2 switch=n enabled=y phases=2 Linecode=1P_OH_AL_4/0_Zuzara_0_416_0_2_2

New Line.l(r:udm14392-udt3710lv) Units=km Length=0.0178446 bus1=udt3710lv.1.2 bus2=udm14392.1.2 switch=n enabled=y phases=2 Linecode=1P_OH_AL_2/0_Rucina_0_416_0_2_2

New Line.l(r:p1ulv48874-udm14394) Units=km Length=0.0243354 bus1=udm14394.1.2 bus2=p1ulv48874.1.2 switch=n enabled=y phases=2 Linecode=1P_OH_AL_2/0_Rucina_0_416_0_2_2

New Line.l(r:udm14394-udt3710lv) Units=km Length=0.0119594 bus1=udt3710lv.1.2 bus2=udm14394.1.2 switch=n enabled=y phases=2 Linecode=1P_OH_AL_2/0_Rucina_0_416_0_2_2

New Line.l(r:p1ulv8062-udt3714lv) Units=km Length=0.0264497 bus1=udt3714lv.1.2 bus2=p1ulv8062.1.2 switch=n enabled=y phases=2 Linecode=1P_OH_AL_2/0_Rucina_0_416_0_2_2

New Line.l(r:p1ulv8655-udt3872lv) Units=km Length=0.0521749 bus1=udt3872lv.1.2 bus2=p1ulv8655.1.2 switch=n enabled=y phases=2 Linecode=1P_OH_AL_4/0_Zuzara_0_416_0_2_2

New Line.l(r:p1ulv8657-udt3872lv) Units=km Length=0.0449584 bus1=udt3872lv.1.2 bus2=p1ulv8657.1.2 switch=n enabled=y phases=2 Linecode=1P_OH_AL_4/0_Zuzara_0_416_0_2_2

New Line.l(r:p1ulv8667-udm15184) Units=km Length=0.031188800000000003 bus1=udm15184.1.2 bus2=p1ulv8667.1.2 switch=n enabled=y phases=2 Linecode=1P_OH_AL_4/0_Zuzara_0_416_0_2_2

New Line.l(r:udm15184-udt3872lv) Units=km Length=0.0191503 bus1=udt3872lv.1.2 bus2=udm15184.1.2 switch=n enabled=y phases=2 Linecode=1P_OH_AL_2/0_Rucina_0_416_0_2_2

New Line.l(r:p1ulv24829-udm15185) Units=km Length=0.0143083 bus1=udm15185.1.2 bus2=p1ulv24829.1.2 switch=n enabled=y phases=2 Linecode=1P_OH_AL_2/0_Rucina_0_416_0_2_2

New Line.l(r:udm15185-udt3872lv) Units=km Length=0.0326341 bus1=udt3872lv.1.2 bus2=udm15185.1.2 switch=n enabled=y phases=2 Linecode=1P_OH_AL_4/0_Zuzara_0_416_0_2_2

New Line.l(r:p1ulv8658-udm15186) Units=km Length=0.0332711 bus1=udm15186.1.2 bus2=p1ulv8658.1.2 switch=n enabled=y phases=2 Linecode=1P_OH_AL_4/0_Zuzara_0_416_0_2_2

New Line.l(r:udm15186-udt3873lv) Units=km Length=0.033441 bus1=udt3873lv.1.2 bus2=udm15186.1.2 switch=n enabled=y phases=2 Linecode=1P_OH_AL_4/0_Zuzara_0_416_0_2_2

New Line.l(r:p1ulv24713-udm15187) Units=km Length=0.0355559 bus1=udm15187.1.2 bus2=p1ulv24713.1.2 switch=n enabled=y phases=2 Linecode=1P_OH_AL_4/0_Zuzara_0_416_0_2_2

New Line.l(r:udm15187-udt3873lv) Units=km Length=0.016724200000000005 bus1=udt3873lv.1.2 bus2=udm15187.1.2 switch=n enabled=y phases=2 Linecode=1P_OH_AL_2/0_Rucina_0_416_0_2_2

New Line.l(r:p1ulv8666-udt3878lv) Units=km Length=0.0387193 bus1=udt3878lv.1.2 bus2=p1ulv8666.1.2 switch=n enabled=y phases=2 Linecode=1P_OH_AL_4/0_Zuzara_0_416_0_2_2

New Line.l(r:p1ulv21982-udt3878lv) Units=km Length=0.0300735 bus1=udt3878lv.1.2 bus2=p1ulv21982.1.2 switch=n enabled=y phases=2 Linecode=1P_OH_AL_4/0_Zuzara_0_416_0_2_2

New Line.l(r:p1ulv8668-udm15209) Units=km Length=0.05460870000000001 bus1=udm15209.1.2 bus2=p1ulv8668.1.2 switch=n enabled=y phases=2 Linecode=1P_OH_AL_4/0_Zuzara_0_416_0_2_2

New Line.l(r:p1ulv15606-udm15209) Units=km Length=0.020606 bus1=udm15209.1.2 bus2=p1ulv15606.1.2 switch=n enabled=y phases=2 Linecode=1P_OH_AL_2/0_Rucina_0_416_0_2_2

New Line.l(r:p1ulv35701-udm15209) Units=km Length=0.0217884 bus1=udm15209.1.2 bus2=p1ulv35701.1.2 switch=n enabled=y phases=2 Linecode=1P_OH_AL_2/0_Rucina_0_416_0_2_2

New Line.l(r:udm15209-udt3879lv) Units=km Length=0.0186115 bus1=udt3879lv.1.2 bus2=udm15209.1.2 switch=n enabled=y phases=2 Linecode=1P_OH_AL_2/0_Rucina_0_416_0_2_2

New Line.l(r:p1ulv25464-udm15211) Units=km Length=0.018176200000000003 bus1=udm15211.1.2 bus2=p1ulv25464.1.2 switch=n enabled=y phases=2 Linecode=1P_OH_AL_2/0_Rucina_0_416_0_2_2

New Line.l(r:p1ulv34163-udm15211) Units=km Length=0.0201706 bus1=udm15211.1.2 bus2=p1ulv34163.1.2 switch=n enabled=y phases=2 Linecode=1P_OH_AL_2/0_Rucina_0_416_0_2_2

New Line.l(r:udm15211-udt3879lv) Units=km Length=0.018602 bus1=udt3879lv.1.2 bus2=udm15211.1.2 switch=n enabled=y phases=2 Linecode=1P_OH_AL_2/0_Rucina_0_416_0_2_2

New Line.l(r:p1ulv13955-udt3880lv) Units=km Length=0.0166335 bus1=udt3880lv.1.2 bus2=p1ulv13955.1.2 switch=n enabled=y phases=2 Linecode=1P_OH_AL_2/0_Rucina_0_416_0_2_2

New Line.l(r:p1ulv17431-udt3880lv) Units=km Length=0.017664700000000002 bus1=udt3880lv.1.2 bus2=p1ulv17431.1.2 switch=n enabled=y phases=2 Linecode=1P_OH_AL_2/0_Rucina_0_416_0_2_2

New Line.l(r:p1ulv20116-udt3880lv) Units=km Length=0.0242401 bus1=udt3880lv.1.2 bus2=p1ulv20116.1.2 switch=n enabled=y phases=2 Linecode=1P_OH_AL_2/0_Rucina_0_416_0_2_2

New Line.l(r:p1ulv24967-udt3880lv) Units=km Length=0.022918800000000003 bus1=udt3880lv.1.2 bus2=p1ulv24967.1.2 switch=n enabled=y phases=2 Linecode=1P_OH_AL_2/0_Rucina_0_416_0_2_2

New Line.l(r:p1ulv8669-udm15214) Units=km Length=0.0427771 bus1=udm15214.1.2 bus2=p1ulv8669.1.2 switch=n enabled=y phases=2 Linecode=1P_OH_AL_4/0_Zuzara_0_416_0_2_2

New Line.l(r:udm15214-udt3880lv) Units=km Length=0.0179168 bus1=udt3880lv.1.2 bus2=udm15214.1.2 switch=n enabled=y phases=2 Linecode=1P_OH_AL_2/0_Rucina_0_416_0_2_2

New Line.l(r:p1ulv33995-udm15220) Units=km Length=0.0174806 bus1=udm15220.1.2 bus2=p1ulv33995.1.2 switch=n enabled=y phases=2 Linecode=1P_OH_AL_2/0_Rucina_0_416_0_2_2

New Line.l(r:p1ulv15200-udm15216) Units=km Length=0.0217731 bus1=udm15216.1.2 bus2=p1ulv15200.1.2 switch=n enabled=y phases=2 Linecode=1P_OH_AL_2/0_Rucina_0_416_0_2_2

New Line.l(r:udm15216-udm15220) Units=km Length=0.0179181 bus1=udm15220.1.2 bus2=udm15216.1.2 switch=n enabled=y phases=2 Linecode=1P_OH_AL_2/0_Rucina_0_416_0_2_2

New Line.l(r:udm15220-udt3880lv) Units=km Length=0.0358436 bus1=udt3880lv.1.2 bus2=udm15220.1.2 switch=n enabled=y phases=2 Linecode=1P_OH_AL_4/0_Zuzara_0_416_0_2_2

New Line.l(r:p1ulv8670-udt3881lv) Units=km Length=0.001 bus1=udt3881lv.1.2 bus2=p1ulv8670.1.2 switch=n enabled=y phases=2 Linecode=1P_OH_AL_4_Periwinkle_0_416_0_2_2

New Line.l(r:p1ulv8671-udt3882lv) Units=km Length=0.0286097 bus1=udt3882lv.1.2 bus2=p1ulv8671.1.2 switch=n enabled=y phases=2 Linecode=1P_OH_AL_4/0_Zuzara_0_416_0_2_2

New Line.l(r:p1ulv35964-udt3883lv) Units=km Length=0.018411100000000003 bus1=udt3883lv.1.2 bus2=p1ulv35964.1.2 switch=n enabled=y phases=2 Linecode=1P_OH_AL_2/0_Rucina_0_416_0_2_2

New Line.l(r:p1ulv8672-udm15223) Units=km Length=0.0168296 bus1=udm15223.1.2 bus2=p1ulv8672.1.2 switch=n enabled=y phases=2 Linecode=1P_OH_AL_2/0_Rucina_0_416_0_2_2

New Line.l(r:p1ulv31078-udm15223) Units=km Length=0.0183492 bus1=udm15223.1.2 bus2=p1ulv31078.1.2 switch=n enabled=y phases=2 Linecode=1P_OH_AL_2/0_Rucina_0_416_0_2_2

New Line.l(r:udm15223-udt3883lv) Units=km Length=0.0173349 bus1=udt3883lv.1.2 bus2=udm15223.1.2 switch=n enabled=y phases=2 Linecode=1P_OH_AL_2/0_Rucina_0_416_0_2_2

New Line.l(r:p1ulv27574-udm15225) Units=km Length=0.0186216 bus1=udm15225.1.2 bus2=p1ulv27574.1.2 switch=n enabled=y phases=2 Linecode=1P_OH_AL_2/0_Rucina_0_416_0_2_2

New Line.l(r:p1ulv32481-udm15225) Units=km Length=0.0196814 bus1=udm15225.1.2 bus2=p1ulv32481.1.2 switch=n enabled=y phases=2 Linecode=1P_OH_AL_2/0_Rucina_0_416_0_2_2

New Line.l(r:p1ulv25743-udm15224) Units=km Length=0.0203 bus1=udm15224.1.2 bus2=p1ulv25743.1.2 switch=n enabled=y phases=2 Linecode=1P_OH_AL_2/0_Rucina_0_416_0_2_2

New Line.l(r:udm15224-udm15225) Units=km Length=0.0173112 bus1=udm15225.1.2 bus2=udm15224.1.2 switch=n enabled=y phases=2 Linecode=1P_OH_AL_2/0_Rucina_0_416_0_2_2

New Line.l(r:udm15225-udt3883lv) Units=km Length=0.0173219 bus1=udt3883lv.1.2 bus2=udm15225.1.2 switch=n enabled=y phases=2 Linecode=1P_OH_AL_2/0_Rucina_0_416_0_2_2

New Line.l(r:p1ulv13903-udt3884lv) Units=km Length=0.0224673 bus1=udt3884lv.1.2 bus2=p1ulv13903.1.2 switch=n enabled=y phases=2 Linecode=1P_OH_AL_2/0_Rucina_0_416_0_2_2

New Line.l(r:p1ulv15470-udt3884lv) Units=km Length=0.0211852 bus1=udt3884lv.1.2 bus2=p1ulv15470.1.2 switch=n enabled=y phases=2 Linecode=1P_OH_AL_2/0_Rucina_0_416_0_2_2

New Line.l(r:p1ulv8673-udm15229) Units=km Length=0.0315636 bus1=udm15229.1.2 bus2=p1ulv8673.1.2 switch=n enabled=y phases=2 Linecode=1P_OH_AL_4/0_Zuzara_0_416_0_2_2

New Line.l(r:p1ulv15353-udm15229) Units=km Length=0.0379992 bus1=udm15229.1.2 bus2=p1ulv15353.1.2 switch=n enabled=y phases=2 Linecode=1P_OH_AL_4/0_Zuzara_0_416_0_2_2

New Line.l(r:p1ulv18897-udm15229) Units=km Length=0.0293167 bus1=udm15229.1.2 bus2=p1ulv18897.1.2 switch=n enabled=y phases=2 Linecode=1P_OH_AL_4/0_Zuzara_0_416_0_2_2

New Line.l(r:p1ulv25208-udm15229) Units=km Length=0.0378496 bus1=udm15229.1.2 bus2=p1ulv25208.1.2 switch=n enabled=y phases=2 Linecode=1P_OH_AL_4/0_Zuzara_0_416_0_2_2

New Line.l(r:udm15229-udt3884lv) Units=km Length=0.0191492 bus1=udt3884lv.1.2 bus2=udm15229.1.2 switch=n enabled=y phases=2 Linecode=1P_OH_AL_2/0_Rucina_0_416_0_2_0_2

New Line.l(r:p1ulv14004-udm15231) Units=km Length=0.0164188 bus1=udm15231.1.2 bus2=p1ulv14004.1.2 switch=n enabled=y phases=2 Linecode=1P_OH_AL_2/0_Rucina_0_416_0_2_2

New Line.l(r:p1ulv19000-udm15235) Units=km Length=0.0203357 bus1=udm15235.1.2 bus2=p1ulv19000.1.2 switch=n enabled=y phases=2 Linecode=1P_OH_AL_2/0_Rucina_0_416_0_2_2

New Line.l(r:udm15231-udm15235) Units=km Length=0.019154700000000004 bus1=udm15231.1.2 bus2=udm15235.1.2 switch=n enabled=y phases=2 Linecode=1P_OH_AL_2/0_Rucina_0_416_0_2_2

New Line.l(r:udm15231-udt3884lv) Units=km Length=0.038313200000000006 bus1=udt3884lv.1.2 bus2=udm15231.1.2 switch=n enabled=y phases=2 Linecode=1P_OH_AL_4/0_Zuzara_0_416_0_2_2

New Line.l(r:p1ulv8823-udt3995lv) Units=km Length=0.0537588 bus1=udt3995lv.1.2 bus2=p1ulv8823.1.2 switch=n enabled=y phases=2 Linecode=1P_OH_AL_4/0_Zuzara_0_416_0_2_2

New Line.l(r:p1ulv13751-udt3995lv) Units=km Length=0.0268669 bus1=udt3995lv.1.2 bus2=p1ulv13751.1.2 switch=n enabled=y phases=2 Linecode=1P_OH_AL_2/0_Rucina_0_416_0_2_2

New Line.l(r:p1ulv20084-udt3995lv) Units=km Length=0.0270356 bus1=udt3995lv.1.2 bus2=p1ulv20084.1.2 switch=n enabled=y phases=2 Linecode=1P_OH_AL_4/0_Zuzara_0_416_0_2_2

New Line.l(r:p1ulv20499-udt3995lv) Units=km Length=0.0557197 bus1=udt3995lv.1.2 bus2=p1ulv20499.1.2 switch=n enabled=y phases=2 Linecode=1P_OH_AL_4/0_Zuzara_0_416_0_2_2

New Line.l(r:p1ulv24935-udt3995lv) Units=km Length=0.026909400000000003 bus1=udt3995lv.1.2 bus2=p1ulv24935.1.2 switch=n enabled=y phases=2 Linecode=1P_OH_AL_2/0_Rucina_0_416_0_2_2

New Line.l(r:p1ulv25029-udt3995lv) Units=km Length=0.0283475 bus1=udt3995lv.1.2 bus2=p1ulv25029.1.2 switch=n enabled=y phases=2 Linecode=1P_OH_AL_4/0_Zuzara_0_416_0_2_2

New Line.l(r:p1ulv8824-udt3996lv) Units=km Length=0.093372 bus1=udt3996lv.1.2 bus2=p1ulv8824.1.2 switch=n enabled=y phases=2 Linecode=1P_UG_AL_4/0_Sweetbriar_0_416_0_2_2

New Line.l(r:p1ulv8825-udm15601) Units=km Length=0.0319702 bus1=udm15601.1.2 bus2=p1ulv8825.1.2 switch=n enabled=y phases=2 Linecode=1P_OH_AL_4/0_Zuzara_0_416_0_2_2

New Line.l(r:p1ulv37396-udm15601) Units=km Length=0.0522451 bus1=udm15601.1.2 bus2=p1ulv37396.1.2 switch=n enabled=y phases=2 Linecode=1P_OH_AL_4/0_Zuzara_0_416_0_2_2

New Line.l(r:udm15601-udt3997lv) Units=km Length=0.019367 bus1=udt3997lv.1.2 bus2=udm15601.1.2 switch=n enabled=y phases=2 Linecode=1P_OH_AL_2/0_Rucina_0_416_0_2_2

New Line.l(r:p1ulv25450-udm15602) Units=km Length=0.0303091 bus1=udm15602.1.2 bus2=p1ulv25450.1.2 switch=n enabled=y phases=2 Linecode=1P_OH_AL_4/0_Zuzara_0_416_0_2_2

New Line.l(r:udm15602-udt3997lv) Units=km Length=0.019367 bus1=udt3997lv.1.2 bus2=udm15602.1.2 switch=n enabled=y phases=2 Linecode=1P_OH_AL_2/0_Rucina_0_416_0_2_2

New Line.l(r:p1ulv8827-udt3999lv) Units=km Length=0.0109487 bus1=udt3999lv.1.2 bus2=p1ulv8827.1.2 switch=n enabled=y phases=2 Linecode=1P_OH_AL_2/0_Rucina_0_416_0_2_2

New Line.l(r:p1ulv14123-udt3999lv) Units=km Length=0.00952271 bus1=udt3999lv.1.2 bus2=p1ulv14123.1.2 switch=n enabled=y phases=2 Linecode=1P_OH_AL_2/0_Rucina_0_416_0_2_2

New Line.l(r:p1ulv8830-udt4002lv) Units=km Length=0.010299600000000003 bus1=udt4002lv.1.2 bus2=p1ulv8830.1.2 switch=n enabled=y phases=2 Linecode=1P_OH_AL_2/0_Rucina_0_416_0_2_2

New Line.l(r:p1ulv8833-udt4005lv) Units=km Length=0.0438583 bus1=udt4005lv.1.2 bus2=p1ulv8833.1.2 switch=n enabled=y phases=2 Linecode=1P_OH_AL_4/0_Zuzara_0_416_0_2_2

New Line.l(r:p1ulv23311-udt4005lv) Units=km Length=0.0208108 bus1=udt4005lv.1.2 bus2=p1ulv23311.1.2 switch=n enabled=y phases=2 Linecode=1P_OH_AL_2/0_Rucina_0_416_0_2_2

New Line.l(r:p1ulv14712-udm15616) Units=km Length=0.0231117 bus1=udm15616.1.2 bus2=p1ulv14712.1.2 switch=n enabled=y phases=2 Linecode=1P_OH_AL_2/0_Rucina_0_416_0_2_2

New Line.l(r:udm15616-udt4005lv) Units=km Length=0.019300600000000005 bus1=udt4005lv.1.2 bus2=udm15616.1.2 switch=n enabled=y phases=2 Linecode=1P_OH_AL_2/0_Rucina_0_416_0_2_2

New Line.l(r:p1ulv8838-udm15630) Units=km Length=0.0263036 bus1=udm15630.1.2 bus2=p1ulv8838.1.2 switch=n enabled=y phases=2 Linecode=1P_UG_AL_1/0_Brenau_0_416_0_2_2

New Line.l(r:udm15630-udt4010lv) Units=km Length=0.0193012 bus1=udt4010lv.1.2 bus2=udm15630.1.2 switch=n enabled=y phases=2 Linecode=1P_UG_AL_1/0_Brenau_0_416_0_2_2

New Line.l(r:p1ulv25497-udm15631) Units=km Length=0.027645400000000004 bus1=udm15631.1.2 bus2=p1ulv25497.1.2 switch=n enabled=y phases=2 Linecode=1P_UG_AL_1/0_Brenau_0_416_0_2_2

New Line.l(r:udm15631-udt4010lv) Units=km Length=0.00964643 bus1=udt4010lv.1.2 bus2=udm15631.1.2 switch=n enabled=y phases=2 Linecode=1P_UG_AL_1/0_Brenau_0_416_0_2_2

New Line.l(r:p1ulv8839-udm15632) Units=km Length=0.0201027 bus1=udm15632.1.2 bus2=p1ulv8839.1.2 switch=n enabled=y phases=2 Linecode=1P_UG_AL_1/0_Brenau_0_416_0_2_2

New Line.l(r:p1ulv16914-udm15633) Units=km Length=0.0266879 bus1=udm15633.1.2 bus2=p1ulv16914.1.2 switch=n enabled=y phases=2 Linecode=1P_UG_AL_1/0_Brenau_0_416_0_2_2

New Line.l(r:udm15632-udm15633) Units=km Length=0.00965479 bus1=udm15632.1.2 bus2=udm15633.1.2 switch=n enabled=y phases=2 Linecode=1P_UG_AL_1/0_Brenau_0_416_0_2_2

New Line.l(r:udm15632-udt4011lv) Units=km Length=0.00964643 bus1=udt4011lv.1.2 bus2=udm15632.1.2 switch=n enabled=y phases=2 Linecode=1P_UG_AL_1/0_Brenau_0_416_0_2_2

New Line.l(r:p1ulv24564-udm15634) Units=km Length=0.0247859 bus1=udm15634.1.2 bus2=p1ulv24564.1.2 switch=n enabled=y phases=2 Linecode=1P_UG_AL_1/0_Brenau_0_416_0_2_2

New Line.l(r:udm15634-udt4011lv) Units=km Length=0.0289531 bus1=udt4011lv.1.2 bus2=udm15634.1.2 switch=n enabled=y phases=2 Linecode=1P_UG_AL_1/0_Brenau_0_416_0_2_2

New Line.l(r:p1ulv18151-udm15636) Units=km Length=0.0226671 bus1=udm15636.1.2 bus2=p1ulv18151.1.2 switch=n enabled=y phases=2 Linecode=1P_OH_AL_2/0_Rucina_0_416_0_2_2

New Line.l(r:udm15636-udt4012lv) Units=km Length=0.0557635 bus1=udt4012lv.1.2 bus2=udm15636.1.2 switch=n enabled=y phases=2 Linecode=1P_OH_AL_4/0_Zuzara_0_416_0_2_2

New Line.l(r:p1ulv25662-udm15637) Units=km Length=0.02058 bus1=udm15637.1.2 bus2=p1ulv25662.1.2 switch=n enabled=y phases=2 Linecode=1P_OH_AL_2/0_Rucina_0_416_0_2_2

New Line.l(r:p1ulv8840-udm15635) Units=km Length=0.025979200000000004 bus1=udm15635.1.2 bus2=p1ulv8840.1.2 switch=n enabled=y phases=2 Linecode=1P_OH_AL_2/0_Rucina_0_416_0_2_2

New Line.l(r:udm15635-udm15637) Units=km Length=0.0272765 bus1=udm15637.1.2 bus2=udm15635.1.2 switch=n enabled=y phases=2 Linecode=1P_OH_AL_4/0_Zuzara_0_416_0_2_2

New Line.l(r:udm15637-udt4012lv) Units=km Length=0.013632300000000002 bus1=udt4012lv.1.2 bus2=udm15637.1.2 switch=n enabled=y phases=2 Linecode=1P_OH_AL_2/0_Rucina_0_416_0_2_2

New Line.l(r:p1ulv8841-udm15638) Units=km Length=0.0165321 bus1=udm15638.1.2 bus2=p1ulv8841.1.2 switch=n enabled=y phases=2 Linecode=1P_OH_AL_2/0_Rucina_0_416_0_2_2

New Line.l(r:p1ulv18174-udm15638) Units=km Length=0.0212301 bus1=udm15638.1.2 bus2=p1ulv18174.1.2 switch=n enabled=y phases=2 Linecode=1P_OH_AL_2/0_Rucina_0_416_0_2_2

New Line.l(r:udm15638-udt4013lv) Units=km Length=0.0166504 bus1=udt4013lv.1.2 bus2=udm15638.1.2 switch=n enabled=y phases=2 Linecode=1P_OH_AL_2/0_Rucina_0_416_0_2_2

New Line.l(r:p1ulv8843-udm15639) Units=km Length=0.0172049 bus1=udm15639.1.2 bus2=p1ulv8843.1.2 switch=n enabled=y phases=2 Linecode=1P_OH_AL_2/0_Rucina_0_416_0_2_2

New Line.l(r:udm15639-udt4013lv) Units=km Length=0.0166597 bus1=udt4013lv.1.2 bus2=udm15639.1.2 switch=n enabled=y phases=2 Linecode=1P_OH_AL_2/0_Rucina_0_416_0_2_2

New Line.l(r:p1ulv8842-udt4014lv) Units=km Length=0.0573947 bus1=udt4014lv.1.2 bus2=p1ulv8842.1.2 switch=n enabled=y phases=2 Linecode=1P_OH_AL_4/0_Zuzara_0_416_0_2_2

New Line.l(r:p1ulv16765-udt4014lv) Units=km Length=0.031145200000000005 bus1=udt4014lv.1.2 bus2=p1ulv16765.1.2 switch=n enabled=y phases=2 Linecode=1P_OH_AL_4/0_Zuzara_0_416_0_2_2

New Line.l(r:p1ulv29227-udt4014lv) Units=km Length=0.0284209 bus1=udt4014lv.1.2 bus2=p1ulv29227.1.2 switch=n enabled=y phases=2 Linecode=1P_OH_AL_4/0_Zuzara_0_416_0_2_2

New Line.l(r:p1ulv37393-udt4014lv) Units=km Length=0.0314725 bus1=udt4014lv.1.2 bus2=p1ulv37393.1.2 switch=n enabled=y phases=2 Linecode=1P_OH_AL_4/0_Zuzara_0_416_0_2_2

New Line.l(r:p1ulv35816-udm15644) Units=km Length=0.0165652 bus1=udm15644.1.2 bus2=p1ulv35816.1.2 switch=n enabled=y phases=2 Linecode=1P_OH_AL_2/0_Rucina_0_416_0_2_2

New Line.l(r:udm15644-udt4014lv) Units=km Length=0.0452918 bus1=udt4014lv.1.2 bus2=udm15644.1.2 switch=n enabled=y phases=2 Linecode=1P_OH_AL_4/0_Zuzara_0_416_0_2_2

New Line.l(r:p1ulv23724-udt4499lv) Units=km Length=0.0152287 bus1=udt4499lv.1.2 bus2=p1ulv23724.1.2 switch=n enabled=y phases=2 Linecode=1P_OH_AL_2/0_Rucina_0_416_0_2_2

New Line.l(r:p1ulv9754-udm17094) Units=km Length=0.019857500000000004 bus1=udm17094.1.2 bus2=p1ulv9754.1.2 switch=n enabled=y phases=2 Linecode=1P_OH_AL_2/0_Rucina_0_416_0_2_2

New Line.l(r:p1ulv13776-udm17095) Units=km Length=0.018870500000000002 bus1=udm17095.1.2 bus2=p1ulv13776.1.2 switch=n enabled=y phases=2 Linecode=1P_OH_AL_2/0_Rucina_0_416_0_2_2

New Line.l(r:p1ulv20039-udm17095) Units=km Length=0.0140801 bus1=udm17095.1.2 bus2=p1ulv20039.1.2 switch=n enabled=y phases=2 Linecode=1P_OH_AL_2/0_Rucina_0_416_0_2_2

New Line.l(r:udm17094-udm17095) Units=km Length=0.0175693 bus1=udm17094.1.2 bus2=udm17095.1.2 switch=n enabled=y phases=2 Linecode=1P_OH_AL_2/0_Rucina_0_416_0_2_2

New Line.l(r:udm17094-udt4499lv) Units=km Length=0.016073400000000005 bus1=udt4499lv.1.2 bus2=udm17094.1.2 switch=n enabled=y phases=2 Linecode=1P_OH_AL_2/0_Rucina_0_416_0_2_2

New Line.l(r:p1ulv22277-udm17097) Units=km Length=0.0130143 bus1=udm17097.1.2 bus2=p1ulv22277.1.2 switch=n enabled=y phases=2 Linecode=1P_OH_AL_2/0_Rucina_0_416_0_2_2

New Line.l(r:p1ulv30953-udm17099) Units=km Length=0.0175114 bus1=udm17099.1.2 bus2=p1ulv30953.1.2 switch=n enabled=y phases=2 Linecode=1P_OH_AL_2/0_Rucina_0_416_0_2_2

New Line.l(r:udm17097-udm17099) Units=km Length=0.016073400000000005 bus1=udm17097.1.2 bus2=udm17099.1.2 switch=n enabled=y phases=2 Linecode=1P_OH_AL_2/0_Rucina_0_416_0_2_2

New Line.l(r:udm17097-udt4499lv) Units=km Length=0.0160805 bus1=udt4499lv.1.2 bus2=udm17097.1.2 switch=n enabled=y phases=2 Linecode=1P_OH_AL_2/0_Rucina_0_416_0_2_2

New Line.l(r:p1ulv9755-udt4500lv) Units=km Length=0.02295 bus1=udt4500lv.1.2 bus2=p1ulv9755.1.2 switch=n enabled=y phases=2 Linecode=1P_OH_AL_2/0_Rucina_0_416_0_2_2

New Line.l(r:p1ulv21511-udt4500lv) Units=km Length=0.0228968 bus1=udt4500lv.1.2 bus2=p1ulv21511.1.2 switch=n enabled=y phases=2 Linecode=1P_OH_AL_2/0_Rucina_0_416_0_2_2
