New Load.load_p1ulv3569 conn=wye bus1=p1ulv3569.1.2.3 kV=0.48 Vminpu=0.8 Vmaxpu=1.2 model=1 kW=34.6603 kvar=7.038074095172779 Phases=3

New Load.load_p1ulv3570 conn=wye bus1=p1ulv3570.1.2.3 kV=0.48 Vminpu=0.8 Vmaxpu=1.2 model=1 kW=38.970400000000005 kvar=7.913277228371401 Phases=3

New Load.load_p1ulv3571 conn=wye bus1=p1ulv3571.1.2 kV=0.2080002494301389 Vminpu=0.8 Vmaxpu=1.2 model=1 kW=12.05 kvar=0.9191546616517607 Phases=2

New Load.load_p1ulv3576 conn=wye bus1=p1ulv3576.1.2.3 kV=0.48 Vminpu=0.8 Vmaxpu=1.2 model=1 kW=35.2504 kvar=7.157899010812905 Phases=3

New Load.load_p1ulv3577 conn=wye bus1=p1ulv3577.1.2.3 kV=0.48 Vminpu=0.8 Vmaxpu=1.2 model=1 kW=40.6804 kvar=8.260507538055549 Phases=3

New Load.load_p1ulv7253 conn=wye bus1=p1ulv7253.1.2 kV=0.2080002494301389 Vminpu=0.8 Vmaxpu=1.2 model=1 kW=11.62 kvar=0.8409115972996914 Phases=2

New Load.load_p1ulv7254 conn=wye bus1=p1ulv7254.1.2 kV=0.2080002494301389 Vminpu=0.8 Vmaxpu=1.2 model=1 kW=13.7401 kvar=1.270359572425928 Phases=2

New Load.load_p1ulv7255 conn=wye bus1=p1ulv7255.1.2 kV=0.2080002494301389 Vminpu=0.8 Vmaxpu=1.2 model=1 kW=12.1301 kvar=0.9401717516684716 Phases=2

New Load.load_p1ulv7256 conn=wye bus1=p1ulv7256.1.2 kV=0.2080002494301389 Vminpu=0.8 Vmaxpu=1.2 model=1 kW=12.8201 kvar=1.0802822275059345 Phases=2

New Load.load_p1ulv7257 conn=wye bus1=p1ulv7257.1.2 kV=0.2080002494301389 Vminpu=0.8 Vmaxpu=1.2 model=1 kW=11.85 kvar=0.8810345938741143 Phases=2

New Load.load_p1ulv7259 conn=wye bus1=p1ulv7259.1.2 kV=0.2080002494301389 Vminpu=0.8 Vmaxpu=1.2 model=1 kW=2.86003 kvar=0.5807538611730713 Phases=2

New Load.load_p1ulv7260 conn=wye bus1=p1ulv7260.1.2 kV=0.2080002494301389 Vminpu=0.8 Vmaxpu=1.2 model=1 kW=1.38001 kvar=0.28022298226153225 Phases=2

New Load.load_p1ulv7261 conn=wye bus1=p1ulv7261.1.2 kV=0.2080002494301389 Vminpu=0.8 Vmaxpu=1.2 model=1 kW=5.79006 kvar=1.1787479841412536 Phases=2

New Load.load_p1ulv7263 conn=wye bus1=p1ulv7263.1.2 kV=0.2080002494301389 Vminpu=0.8 Vmaxpu=1.2 model=1 kW=1.93002 kvar=0.38988294196352385 Phases=2

New Load.load_p1ulv7264 conn=wye bus1=p1ulv7264.1.2 kV=0.2080002494301389 Vminpu=0.8 Vmaxpu=1.2 model=1 kW=4.840050000000001 kvar=0.9802786838926555 Phases=2

New Load.load_p1ulv7265 conn=wye bus1=p1ulv7265.1.2 kV=0.2080002494301389 Vminpu=0.8 Vmaxpu=1.2 model=1 kW=1.7300200000000001 kvar=0.350389299430372 Phases=2

New Load.load_p1ulv7266 conn=wye bus1=p1ulv7266.1.2 kV=0.2080002494301389 Vminpu=0.8 Vmaxpu=1.2 model=1 kW=3.55004 kvar=0.7208663675971405 Phases=2

New Load.load_p1ulv7267 conn=wye bus1=p1ulv7267.1.2 kV=0.2080002494301389 Vminpu=0.8 Vmaxpu=1.2 model=1 kW=13.4801 kvar=1.2111704107187142 Phases=2

New Load.load_p1ulv7387 conn=wye bus1=p1ulv7387.1.2.3 kV=0.48 Vminpu=0.8 Vmaxpu=1.2 model=1 kW=106.301 kvar=21.585338684055287 Phases=3

New Load.load_p1ulv7701 conn=wye bus1=p1ulv7701.1.2.3 kV=0.48 Vminpu=0.8 Vmaxpu=1.2 model=1 kW=27.070299999999996 kvar=5.496858860960686 Phases=3

New Load.load_p1ulv8051 conn=wye bus1=p1ulv8051.1.2 kV=0.2080002494301389 Vminpu=0.8 Vmaxpu=1.2 model=1 kW=4.78005 kvar=0.9706305507635722 Phases=2

New Load.load_p1ulv8052 conn=wye bus1=p1ulv8052.1.2 kV=0.2080002494301389 Vminpu=0.8 Vmaxpu=1.2 model=1 kW=3.82004 kvar=0.7796807647859518 Phases=2

New Load.load_p1ulv8053 conn=wye bus1=p1ulv8053.1.2 kV=0.2080002494301389 Vminpu=0.8 Vmaxpu=1.2 model=1 kW=13.0501 kvar=1.1298884703894267 Phases=2

New Load.load_p1ulv8054 conn=wye bus1=p1ulv8054.1.2 kV=0.2080002494301389 Vminpu=0.8 Vmaxpu=1.2 model=1 kW=5.420050000000001 kvar=1.1005880935693348 Phases=2

New Load.load_p1ulv8055 conn=wye bus1=p1ulv8055.1.2 kV=0.2080002494301389 Vminpu=0.8 Vmaxpu=1.2 model=1 kW=4.07004 kvar=0.8307064585474014 Phases=2

New Load.load_p1ulv8056 conn=wye bus1=p1ulv8056.1.2 kV=0.2080002494301389 Vminpu=0.8 Vmaxpu=1.2 model=1 kW=10.89 kvar=0.6901467391837689 Phases=2

New Load.load_p1ulv8059 conn=wye bus1=p1ulv8059.1.2 kV=0.2080002494301389 Vminpu=0.8 Vmaxpu=1.2 model=1 kW=11.52 kvar=0.8205013197951115 Phases=2

New Load.load_p1ulv8062 conn=wye bus1=p1ulv8062.1.2 kV=0.2080002494301389 Vminpu=0.8 Vmaxpu=1.2 model=1 kW=7.66008 kvar=1.5514329688562003 Phases=2

New Load.load_p1umv12 conn=wye bus1=p1umv12.1.2.3 kV=12.47 Vminpu=0.8 Vmaxpu=1.2 model=1 kW=932.809 kvar=189.4149461673449 Phases=3

New Load.load_p1ulv8655 conn=wye bus1=p1ulv8655.1.2 kV=0.2080002494301389 Vminpu=0.8 Vmaxpu=1.2 model=1 kW=1.38001 kvar=0.28022298226153225 Phases=2

New Load.load_p1ulv8657 conn=wye bus1=p1ulv8657.1.2 kV=0.2080002494301389 Vminpu=0.8 Vmaxpu=1.2 model=1 kW=1.38001 kvar=0.28022298226153225 Phases=2

New Load.load_p1ulv8658 conn=wye bus1=p1ulv8658.1.2 kV=0.2080002494301389 Vminpu=0.8 Vmaxpu=1.2 model=1 kW=7.21007 kvar=1.460290271871968 Phases=2

New Load.load_p1ulv8666 conn=wye bus1=p1ulv8666.1.2 kV=0.2080002494301389 Vminpu=0.8 Vmaxpu=1.2 model=1 kW=12.05 kvar=0.9191546616517607 Phases=2

New Load.load_p1ulv8667 conn=wye bus1=p1ulv8667.1.2 kV=0.2080002494301389 Vminpu=0.8 Vmaxpu=1.2 model=1 kW=1.38001 kvar=0.28022298226153225 Phases=2

New Load.load_p1ulv8668 conn=wye bus1=p1ulv8668.1.2 kV=0.2080002494301389 Vminpu=0.8 Vmaxpu=1.2 model=1 kW=1.38001 kvar=0.28022298226153225 Phases=2

New Load.load_p1ulv8669 conn=wye bus1=p1ulv8669.1.2 kV=0.2080002494301389 Vminpu=0.8 Vmaxpu=1.2 model=1 kW=1.38001 kvar=0.28022298226153225 Phases=2

New Load.load_p1ulv8670 conn=wye bus1=p1ulv8670.1.2 kV=0.2080002494301389 Vminpu=0.8 Vmaxpu=1.2 model=1 kW=10.59 kvar=0.6306836979747686 Phases=2

New Load.load_p1ulv8671 conn=wye bus1=p1ulv8671.1.2 kV=0.2080002494301389 Vminpu=0.8 Vmaxpu=1.2 model=1 kW=13.2701 kvar=1.1686380972885935 Phases=2

New Load.load_p1ulv8672 conn=wye bus1=p1ulv8672.1.2 kV=0.2080002494301389 Vminpu=0.8 Vmaxpu=1.2 model=1 kW=4.23004 kvar=0.8589462568282636 Phases=2

New Load.load_p1ulv8673 conn=wye bus1=p1ulv8673.1.2 kV=0.2080002494301389 Vminpu=0.8 Vmaxpu=1.2 model=1 kW=13.1801 kvar=1.1504099629613984 Phases=2

New Load.load_p1ulv8823 conn=wye bus1=p1ulv8823.1.2 kV=0.2080002494301389 Vminpu=0.8 Vmaxpu=1.2 model=1 kW=1.38001 kvar=0.28022298226153225 Phases=2

New Load.load_p1ulv8824 conn=wye bus1=p1ulv8824.1.2 kV=0.2080002494301389 Vminpu=0.8 Vmaxpu=1.2 model=1 kW=11.760100000000001 kvar=2.387990154921954 Phases=2

New Load.load_p1ulv8825 conn=wye bus1=p1ulv8825.1.2 kV=0.2080002494301389 Vminpu=0.8 Vmaxpu=1.2 model=1 kW=11.86 kvar=0.8807707807580453 Phases=2

New Load.load_p1ulv8826 conn=wye bus1=p1ulv8826.1.2.3 kV=0.48 Vminpu=0.8 Vmaxpu=1.2 model=1 kW=311.70300000000003 kvar=63.29399369560104 Phases=3

New Load.load_p1ulv8827 conn=wye bus1=p1ulv8827.1.2 kV=0.2080002494301389 Vminpu=0.8 Vmaxpu=1.2 model=1 kW=15.9302 kvar=3.2264202828786437 Phases=2

New Load.load_p1ulv8828 conn=wye bus1=p1ulv8828.1.2.3 kV=0.48 Vminpu=0.8 Vmaxpu=1.2 model=1 kW=29.440300000000004 kvar=5.978107886663278 Phases=3

New Load.load_p1ulv8829 conn=wye bus1=p1ulv8829.1.2.3 kV=0.48 Vminpu=0.8 Vmaxpu=1.2 model=1 kW=103.631 kvar=21.043172060162497 Phases=3

New Load.load_p1ulv8830 conn=wye bus1=p1ulv8830.1.2 kV=0.2080002494301389 Vminpu=0.8 Vmaxpu=1.2 model=1 kW=13.510100000000001 kvar=2.7433428110314617 Phases=2

New Load.load_p1ulv8833 conn=wye bus1=p1ulv8833.1.2 kV=0.2080002494301389 Vminpu=0.8 Vmaxpu=1.2 model=1 kW=2.21002 kvar=0.4499187607575488 Phases=2

New Load.load_p1ulv8838 conn=wye bus1=p1ulv8838.1.2 kV=0.2080002494301389 Vminpu=0.8 Vmaxpu=1.2 model=1 kW=4.53005 kvar=0.9198658856050712 Phases=2

New Load.load_p1ulv8839 conn=wye bus1=p1ulv8839.1.2 kV=0.2080002494301389 Vminpu=0.8 Vmaxpu=1.2 model=1 kW=4.05004 kvar=0.8202741461167985 Phases=2

New Load.load_p1ulv8840 conn=wye bus1=p1ulv8840.1.2 kV=0.2080002494301389 Vminpu=0.8 Vmaxpu=1.2 model=1 kW=2.44002 kvar=0.49033690113400924 Phases=2

New Load.load_p1ulv8841 conn=wye bus1=p1ulv8841.1.2 kV=0.2080002494301389 Vminpu=0.8 Vmaxpu=1.2 model=1 kW=3.36003 kvar=0.6805230909267135 Phases=2

New Load.load_p1ulv8842 conn=wye bus1=p1ulv8842.1.2 kV=0.2080002494301389 Vminpu=0.8 Vmaxpu=1.2 model=1 kW=2.17002 kvar=0.4395046228077686 Phases=2

New Load.load_p1ulv8843 conn=wye bus1=p1ulv8843.1.2 kV=0.2080002494301389 Vminpu=0.8 Vmaxpu=1.2 model=1 kW=1.38001 kvar=0.28022298226153225 Phases=2

New Load.load_p1ulv9754 conn=wye bus1=p1ulv9754.1.2 kV=0.2080002494301389 Vminpu=0.8 Vmaxpu=1.2 model=1 kW=12.05 kvar=0.9191546616517607 Phases=2

New Load.load_p1ulv9755 conn=wye bus1=p1ulv9755.1.2 kV=0.2080002494301389 Vminpu=0.8 Vmaxpu=1.2 model=1 kW=4.73005 kvar=0.960477617731872 Phases=2

New Load.load_p1ulv9756 conn=wye bus1=p1ulv9756.1.2 kV=0.2080002494301389 Vminpu=0.8 Vmaxpu=1.2 model=1 kW=13.7101 kvar=1.2610064660568046 Phases=2

New Load.load_p1ulv9757 conn=wye bus1=p1ulv9757.1.2 kV=0.2080002494301389 Vminpu=0.8 Vmaxpu=1.2 model=1 kW=7.200070000000001 kvar=1.4582649236133909 Phases=2

New Load.load_p1ulv9758 conn=wye bus1=p1ulv9758.1.2 kV=0.2080002494301389 Vminpu=0.8 Vmaxpu=1.2 model=1 kW=4.54005 kvar=0.9195182361353397 Phases=2

New Load.load_p1ulv9759 conn=wye bus1=p1ulv9759.1.2 kV=0.2080002494301389 Vminpu=0.8 Vmaxpu=1.2 model=1 kW=11.42 kvar=0.8000910422905317 Phases=2

New Load.load_p1ulv9760 conn=wye bus1=p1ulv9760.1.2 kV=0.2080002494301389 Vminpu=0.8 Vmaxpu=1.2 model=1 kW=12.67 kvar=1.0498234284108339 Phases=2

New Load.load_p1ulv9761 conn=wye bus1=p1ulv9761.1.2 kV=0.2080002494301389 Vminpu=0.8 Vmaxpu=1.2 model=1 kW=7.02007 kvar=1.4291550279324372 Phases=2

New Load.load_p1ulv9762 conn=wye bus1=p1ulv9762.1.2 kV=0.2080002494301389 Vminpu=0.8 Vmaxpu=1.2 model=1 kW=4.93005 kvar=1.0010893498586726 Phases=2

New Load.load_p1ulv9763 conn=wye bus1=p1ulv9763.1.2 kV=0.2080002494301389 Vminpu=0.8 Vmaxpu=1.2 model=1 kW=11.96 kvar=0.910306540815263 Phases=2

New Load.load_p1ulv9764 conn=wye bus1=p1ulv9764.1.2 kV=0.2080002494301389 Vminpu=0.8 Vmaxpu=1.2 model=1 kW=10.9 kvar=0.6904055379154336 Phases=2

New Load.load_p1ulv9765 conn=wye bus1=p1ulv9765.1.2 kV=0.2080002494301389 Vminpu=0.8 Vmaxpu=1.2 model=1 kW=7.79008 kvar=1.581843211031744 Phases=2

New Load.load_p1ulv9766 conn=wye bus1=p1ulv9766.1.2 kV=0.2080002494301389 Vminpu=0.8 Vmaxpu=1.2 model=1 kW=11.45 kvar=0.8000206635310265 Phases=2

New Load.load_p1ulv9769 conn=wye bus1=p1ulv9769.1.2 kV=0.2080002494301389 Vminpu=0.8 Vmaxpu=1.2 model=1 kW=13.8101 kvar=1.2813123321202051 Phases=2

New Load.load_p1ulv9770 conn=wye bus1=p1ulv9770.1.2 kV=0.2080002494301389 Vminpu=0.8 Vmaxpu=1.2 model=1 kW=12.7301 kvar=1.059267265977166 Phases=2

New Load.load_p1ulv9771 conn=wye bus1=p1ulv9771.1.2 kV=0.2080002494301389 Vminpu=0.8 Vmaxpu=1.2 model=1 kW=12.19 kvar=0.9498984600139976 Phases=2

New Load.load_p1ulv9772 conn=wye bus1=p1ulv9772.1.2 kV=0.2080002494301389 Vminpu=0.8 Vmaxpu=1.2 model=1 kW=11.72 kvar=0.8591212600552419 Phases=2

New Load.load_p1ulv9773 conn=wye bus1=p1ulv9773.1.2 kV=0.2080002494301389 Vminpu=0.8 Vmaxpu=1.2 model=1 kW=4.4900400000000005 kvar=0.9093894694941951 Phases=2

New Load.load_p1ulv9775 conn=wye bus1=p1ulv9775.1.2 kV=0.2080002494301389 Vminpu=0.8 Vmaxpu=1.2 model=1 kW=5.16005 kvar=1.0504897247296356 Phases=2

New Load.load_p1ulv9776 conn=wye bus1=p1ulv9776.1.2 kV=0.2080002494301389 Vminpu=0.8 Vmaxpu=1.2 model=1 kW=3.10003 kvar=0.6294879397252322 Phases=2

New Load.load_p1ulv9970 conn=wye bus1=p1ulv9970.1.2.3 kV=0.48 Vminpu=0.8 Vmaxpu=1.2 model=1 kW=238.342 kvar=48.39740729282984 Phases=3

New Load.load_p1ulv9972 conn=wye bus1=p1ulv9972.1.2 kV=0.2080002494301389 Vminpu=0.8 Vmaxpu=1.2 model=1 kW=3.0300300000000004 kvar=0.6200140497357622 Phases=2

New Load.load_p1ulv9973 conn=wye bus1=p1ulv9973.1.2.3 kV=0.48 Vminpu=0.8 Vmaxpu=1.2 model=1 kW=90.72090000000001 kvar=18.421664445511443 Phases=3

New Load.load_p1ulv9975 conn=wye bus1=p1ulv9975.1.2 kV=0.2080002494301389 Vminpu=0.8 Vmaxpu=1.2 model=1 kW=15.9702 kvar=3.242887422057175 Phases=2

New Load.load_p1ulv9976 conn=wye bus1=p1ulv9976.1.2.3 kV=0.48 Vminpu=0.8 Vmaxpu=1.2 model=1 kW=48.5405 kvar=9.856568916504886 Phases=3

New Load.load_p1ulv9979 conn=wye bus1=p1ulv9979.1.2.3 kV=0.48 Vminpu=0.8 Vmaxpu=1.2 model=1 kW=91.3809 kvar=18.555683161529885 Phases=3

New Load.load_p1ulv9980 conn=wye bus1=p1ulv9980.1.2 kV=0.2080002494301389 Vminpu=0.8 Vmaxpu=1.2 model=1 kW=16.1702 kvar=3.283499154183976 Phases=2

New Load.load_p1ulv9981 conn=wye bus1=p1ulv9981.1.2.3 kV=0.48 Vminpu=0.8 Vmaxpu=1.2 model=1 kW=96.211 kvar=19.53647679825819 Phases=3

New Load.load_p1ulv9982 conn=wye bus1=p1ulv9982.1.2.3 kV=0.48 Vminpu=0.8 Vmaxpu=1.2 model=1 kW=91.0409 kvar=18.48664321691432 Phases=3

New Load.load_p1ulv9983 conn=wye bus1=p1ulv9983.1.2.3 kV=0.48 Vminpu=0.8 Vmaxpu=1.2 model=1 kW=98.27099999999999 kvar=19.954777639164234 Phases=3

New Load.load_p1ulv9984 conn=wye bus1=p1ulv9984.1.2.3 kV=0.48 Vminpu=0.8 Vmaxpu=1.2 model=1 kW=92.4409 kvar=18.770925341801927 Phases=3

New Load.load_p1ulv9985 conn=wye bus1=p1ulv9985.1.2 kV=0.2080002494301389 Vminpu=0.8 Vmaxpu=1.2 model=1 kW=15.6902 kvar=3.1860309970796545 Phases=2

New Load.load_p1ulv9988 conn=wye bus1=p1ulv9988.1.2 kV=0.2080002494301389 Vminpu=0.8 Vmaxpu=1.2 model=1 kW=13.3901 kvar=2.7189757717553813 Phases=2

New Load.load_p1ulv10929 conn=wye bus1=p1ulv10929.1.2 kV=0.2080002494301389 Vminpu=0.8 Vmaxpu=1.2 model=1 kW=5.10005 kvar=1.0409343578723245 Phases=2

New Load.load_p1ulv11304 conn=wye bus1=p1ulv11304.1.2 kV=0.2080002494301389 Vminpu=0.8 Vmaxpu=1.2 model=1 kW=4.77005 kvar=0.9710930148829175 Phases=2

New Load.load_p1ulv11306 conn=wye bus1=p1ulv11306.1.2 kV=0.2080002494301389 Vminpu=0.8 Vmaxpu=1.2 model=1 kW=4.33004 kvar=0.879252122891664 Phases=2

New Load.load_p1ulv11307 conn=wye bus1=p1ulv11307.1.2 kV=0.2080002494301389 Vminpu=0.8 Vmaxpu=1.2 model=1 kW=3.22003 kvar=0.6504775958854341 Phases=2

New Load.load_p1ulv11308 conn=wye bus1=p1ulv11308.1.2 kV=0.2080002494301389 Vminpu=0.8 Vmaxpu=1.2 model=1 kW=4.27004 kvar=0.869300325420206 Phases=2

New Load.load_p1ulv11309 conn=wye bus1=p1ulv11309.1.2 kV=0.2080002494301389 Vminpu=0.8 Vmaxpu=1.2 model=1 kW=3.15003 kvar=0.6396408727569326 Phases=2

New Load.load_p1ulv11311 conn=wye bus1=p1ulv11311.1.2 kV=0.2080002494301389 Vminpu=0.8 Vmaxpu=1.2 model=1 kW=1.42001 kvar=0.2898279815927842 Phases=2

New Load.load_p1ulv11312 conn=wye bus1=p1ulv11312.1.2 kV=0.2080002494301389 Vminpu=0.8 Vmaxpu=1.2 model=1 kW=3.16003 kvar=0.6400161257551694 Phases=2

New Load.load_p1ulv11313 conn=wye bus1=p1ulv11313.1.2.3 kV=0.48 Vminpu=0.8 Vmaxpu=1.2 model=1 kW=29.0903 kvar=5.907037355441375 Phases=3

New Load.load_p1ulv11314 conn=wye bus1=p1ulv11314.1.2 kV=0.2080002494301389 Vminpu=0.8 Vmaxpu=1.2 model=1 kW=4.41004 kvar=0.890871270441145 Phases=2

New Load.load_p1ulv11315 conn=wye bus1=p1ulv11315.1.2 kV=0.2080002494301389 Vminpu=0.8 Vmaxpu=1.2 model=1 kW=3.3000300000000005 kvar=0.6700996718520332 Phases=2

New Load.load_p1ulv11316 conn=wye bus1=p1ulv11316.1.2 kV=0.2080002494301389 Vminpu=0.8 Vmaxpu=1.2 model=1 kW=4.01004 kvar=0.810067352976347 Phases=2

New Load.load_p1ulv11317 conn=wye bus1=p1ulv11317.1.2.3 kV=0.48 Vminpu=0.8 Vmaxpu=1.2 model=1 kW=28.740300000000005 kvar=5.835966824219474 Phases=3

New Load.load_p1ulv11320 conn=wye bus1=p1ulv11320.1.2 kV=0.2080002494301389 Vminpu=0.8 Vmaxpu=1.2 model=1 kW=5.19005 kvar=1.0511658729428572 Phases=2

New Load.load_p1ulv11321 conn=wye bus1=p1ulv11321.1.2 kV=0.2080002494301389 Vminpu=0.8 Vmaxpu=1.2 model=1 kW=5.36005 kvar=1.091205986189491 Phases=2

New Load.load_p1ulv11322 conn=wye bus1=p1ulv11322.1.2 kV=0.2080002494301389 Vminpu=0.8 Vmaxpu=1.2 model=1 kW=10.2001 kvar=2.0712186443329075 Phases=2

New Load.load_p1ulv11568 conn=wye bus1=p1ulv11568.1.2 kV=0.2080002494301389 Vminpu=0.8 Vmaxpu=1.2 model=1 kW=5.23005 kvar=1.059267265977166 Phases=2

New Load.load_p1ulv11569 conn=wye bus1=p1ulv11569.1.2 kV=0.2080002494301389 Vminpu=0.8 Vmaxpu=1.2 model=1 kW=5.48005 kvar=1.109900972441596 Phases=2

New Load.load_p1ulv11570 conn=wye bus1=p1ulv11570.1.2 kV=0.2080002494301389 Vminpu=0.8 Vmaxpu=1.2 model=1 kW=4.76005 kvar=0.9690572018099246 Phases=2

New Load.load_p1ulv11571 conn=wye bus1=p1ulv11571.1.2 kV=0.2080002494301389 Vminpu=0.8 Vmaxpu=1.2 model=1 kW=5.16005 kvar=1.0504897247296356 Phases=2

New Load.load_p1ulv11572 conn=wye bus1=p1ulv11572.1.2 kV=0.2080002494301389 Vminpu=0.8 Vmaxpu=1.2 model=1 kW=5.76006 kvar=1.1696300687715029 Phases=2

New Load.load_p1ulv11573 conn=wye bus1=p1ulv11573.1.2 kV=0.2080002494301389 Vminpu=0.8 Vmaxpu=1.2 model=1 kW=5.78006 kvar=1.1706634455471703 Phases=2

New Load.load_p1ulv11574 conn=wye bus1=p1ulv11574.1.2 kV=0.2080002494301389 Vminpu=0.8 Vmaxpu=1.2 model=1 kW=5.28005 kvar=1.069394007270052 Phases=2

New Load.load_p1ulv11575 conn=wye bus1=p1ulv11575.1.2 kV=0.2080002494301389 Vminpu=0.8 Vmaxpu=1.2 model=1 kW=4.94005 kvar=1.0005321664784275 Phases=2

New Load.load_p1ulv11576 conn=wye bus1=p1ulv11576.1.2 kV=0.2080002494301389 Vminpu=0.8 Vmaxpu=1.2 model=1 kW=5.29005 kvar=1.079713885131026 Phases=2

New Load.load_p1ulv11577 conn=wye bus1=p1ulv11577.1.2 kV=0.2080002494301389 Vminpu=0.8 Vmaxpu=1.2 model=1 kW=5.29005 kvar=1.0686419089616372 Phases=2

New Load.load_p1ulv11578 conn=wye bus1=p1ulv11578.1.2 kV=0.2080002494301389 Vminpu=0.8 Vmaxpu=1.2 model=1 kW=5.380050000000001 kvar=1.0896474898558242 Phases=2

New Load.load_p1ulv11579 conn=wye bus1=p1ulv11579.1.2 kV=0.2080002494301389 Vminpu=0.8 Vmaxpu=1.2 model=1 kW=4.98005 kvar=1.011242282890373 Phases=2

New Load.load_p1ulv11580 conn=wye bus1=p1ulv11580.1.2 kV=0.2080002494301389 Vminpu=0.8 Vmaxpu=1.2 model=1 kW=4.85005 kvar=0.9899086641108747 Phases=2

New Load.load_p1ulv11581 conn=wye bus1=p1ulv11581.1.2 kV=0.2080002494301389 Vminpu=0.8 Vmaxpu=1.2 model=1 kW=4.86005 kvar=0.9894153325398525 Phases=2

New Load.load_p1ulv11582 conn=wye bus1=p1ulv11582.1.2 kV=0.2080002494301389 Vminpu=0.8 Vmaxpu=1.2 model=1 kW=4.48004 kvar=0.9097109219867646 Phases=2

New Load.load_p1ulv11583 conn=wye bus1=p1ulv11583.1.2 kV=0.2080002494301389 Vminpu=0.8 Vmaxpu=1.2 model=1 kW=4.630050000000001 kvar=0.9401717516684716 Phases=2

New Load.load_p1ulv11584 conn=wye bus1=p1ulv11584.1.2 kV=0.2080002494301389 Vminpu=0.8 Vmaxpu=1.2 model=1 kW=4.46004 kvar=0.910306540815263 Phases=2

New Load.load_p1ulv11585 conn=wye bus1=p1ulv11585.1.2 kV=0.2080002494301389 Vminpu=0.8 Vmaxpu=1.2 model=1 kW=5.39005 kvar=1.1001241626356058 Phases=2

New Load.load_p1ulv11586 conn=wye bus1=p1ulv11586.1.2 kV=0.2080002494301389 Vminpu=0.8 Vmaxpu=1.2 model=1 kW=4.28004 kvar=0.8690991898599637 Phases=2

New Load.load_p1ulv11587 conn=wye bus1=p1ulv11587.1.2 kV=0.2080002494301389 Vminpu=0.8 Vmaxpu=1.2 model=1 kW=4.48004 kvar=0.9097109219867646 Phases=2

New Load.load_p1ulv11588 conn=wye bus1=p1ulv11588.1.2 kV=0.2080002494301389 Vminpu=0.8 Vmaxpu=1.2 model=1 kW=4.86005 kvar=0.9894153325398525 Phases=2

New Load.load_p1ulv11589 conn=wye bus1=p1ulv11589.1.2 kV=0.2080002494301389 Vminpu=0.8 Vmaxpu=1.2 model=1 kW=4.55005 kvar=0.9191546616517607 Phases=2

New Load.load_p1ulv11590 conn=wye bus1=p1ulv11590.1.2 kV=0.2080002494301389 Vminpu=0.8 Vmaxpu=1.2 model=1 kW=4.32004 kvar=0.8794793907851697 Phases=2

New Load.load_p1ulv11591 conn=wye bus1=p1ulv11591.1.2 kV=0.2080002494301389 Vminpu=0.8 Vmaxpu=1.2 model=1 kW=4.77005 kvar=0.9710930148829175 Phases=2

New Load.load_p1ulv11592 conn=wye bus1=p1ulv11592.1.2 kV=0.2080002494301389 Vminpu=0.8 Vmaxpu=1.2 model=1 kW=4.87005 kvar=0.9889058302206326 Phases=2

New Load.load_p1ulv11593 conn=wye bus1=p1ulv11593.1.2 kV=0.2080002494301389 Vminpu=0.8 Vmaxpu=1.2 model=1 kW=4.73005 kvar=0.960477617731872 Phases=2

New Load.load_p1ulv11594 conn=wye bus1=p1ulv11594.1.2 kV=0.2080002494301389 Vminpu=0.8 Vmaxpu=1.2 model=1 kW=4.71005 kvar=0.9588781364449609 Phases=2

New Load.load_p1ulv11595 conn=wye bus1=p1ulv11595.1.2 kV=0.2080002494301389 Vminpu=0.8 Vmaxpu=1.2 model=1 kW=4.53005 kvar=0.9198658856050712 Phases=2

New Load.load_p1ulv11596 conn=wye bus1=p1ulv11596.1.2 kV=0.2080002494301389 Vminpu=0.8 Vmaxpu=1.2 model=1 kW=4.670050000000001 kvar=0.9507348841529898 Phases=2

New Load.load_p1ulv11597 conn=wye bus1=p1ulv11597.1.2 kV=0.2080002494301389 Vminpu=0.8 Vmaxpu=1.2 model=1 kW=4.920050000000001 kvar=0.9990587632523329 Phases=2

New Load.load_p1ulv11598 conn=wye bus1=p1ulv11598.1.2 kV=0.2080002494301389 Vminpu=0.8 Vmaxpu=1.2 model=1 kW=4.62005 kvar=0.940555818788026 Phases=2

New Load.load_p1ulv11599 conn=wye bus1=p1ulv11599.1.2 kV=0.2080002494301389 Vminpu=0.8 Vmaxpu=1.2 model=1 kW=5.170050000000001 kvar=1.0498234284108339 Phases=2

New Load.load_p1ulv11600 conn=wye bus1=p1ulv11600.1.2 kV=0.2080002494301389 Vminpu=0.8 Vmaxpu=1.2 model=1 kW=4.840050000000001 kvar=0.9802786838926555 Phases=2

New Load.load_p1ulv11601 conn=wye bus1=p1ulv11601.1.2 kV=0.2080002494301389 Vminpu=0.8 Vmaxpu=1.2 model=1 kW=5.80006 kvar=1.1807837972142463 Phases=2

New Load.load_p1ulv11602 conn=wye bus1=p1ulv11602.1.2 kV=0.2080002494301389 Vminpu=0.8 Vmaxpu=1.2 model=1 kW=4.72005 kvar=0.9609139495179535 Phases=2

New Load.load_p1ulv11603 conn=wye bus1=p1ulv11603.1.2 kV=0.2080002494301389 Vminpu=0.8 Vmaxpu=1.2 model=1 kW=5.19005 kvar=1.0511658729428572 Phases=2

New Load.load_p1ulv11604 conn=wye bus1=p1ulv11604.1.2 kV=0.2080002494301389 Vminpu=0.8 Vmaxpu=1.2 model=1 kW=4.78005 kvar=0.9706305507635722 Phases=2

New Load.load_p1ulv11605 conn=wye bus1=p1ulv11605.1.2 kV=0.2080002494301389 Vminpu=0.8 Vmaxpu=1.2 model=1 kW=5.12005 kvar=1.0396704953791336 Phases=2

New Load.load_p1ulv11606 conn=wye bus1=p1ulv11606.1.2 kV=0.2080002494301389 Vminpu=0.8 Vmaxpu=1.2 model=1 kW=4.920050000000001 kvar=0.9990587632523329 Phases=2

New Load.load_p1ulv11607 conn=wye bus1=p1ulv11607.1.2 kV=0.2080002494301389 Vminpu=0.8 Vmaxpu=1.2 model=1 kW=5.47005 kvar=1.110741026601035 Phases=2

New Load.load_p1ulv11608 conn=wye bus1=p1ulv11608.1.2 kV=0.2080002494301389 Vminpu=0.8 Vmaxpu=1.2 model=1 kW=4.94005 kvar=1.0005321664784275 Phases=2

New Load.load_p1ulv11609 conn=wye bus1=p1ulv11609.1.2 kV=0.2080002494301389 Vminpu=0.8 Vmaxpu=1.2 model=1 kW=4.58005 kvar=0.9300188186367714 Phases=2

New Load.load_p1ulv11610 conn=wye bus1=p1ulv11610.1.2 kV=0.2080002494301389 Vminpu=0.8 Vmaxpu=1.2 model=1 kW=5.340050000000001 kvar=1.078742398644737 Phases=2

New Load.load_p1ulv11611 conn=wye bus1=p1ulv11611.1.2 kV=0.2080002494301389 Vminpu=0.8 Vmaxpu=1.2 model=1 kW=4.66005 kvar=0.951129136852173 Phases=2

New Load.load_p1ulv12478 conn=wye bus1=p1ulv12478.1.2 kV=0.2080002494301389 Vminpu=0.8 Vmaxpu=1.2 model=1 kW=14.5601 kvar=2.956554404697166 Phases=2

New Load.load_p1ulv12479 conn=wye bus1=p1ulv12479.1.2 kV=0.2080002494301389 Vminpu=0.8 Vmaxpu=1.2 model=1 kW=12.8801 kvar=2.6221475961454206 Phases=2

New Load.load_p1ulv12480 conn=wye bus1=p1ulv12480.1.2 kV=0.2080002494301389 Vminpu=0.8 Vmaxpu=1.2 model=1 kW=11.6501 kvar=2.3717425881673098 Phases=2

New Load.load_p1ulv12481 conn=wye bus1=p1ulv12480.1.2 kV=0.2080002494301389 Vminpu=0.8 Vmaxpu=1.2 model=1 kW=15.6302 kvar=3.1738474774416137 Phases=2

New Load.load_p1ulv12482 conn=wye bus1=p1ulv12482.1.2 kV=0.2080002494301389 Vminpu=0.8 Vmaxpu=1.2 model=1 kW=12.3901 kvar=2.522392755568775 Phases=2

New Load.load_p1ulv12483 conn=wye bus1=p1ulv12483.1.2 kV=0.2080002494301389 Vminpu=0.8 Vmaxpu=1.2 model=1 kW=12.4501 kvar=2.528100630759417 Phases=2

New Load.load_p1ulv12484 conn=wye bus1=p1ulv12484.1.2 kV=0.2080002494301389 Vminpu=0.8 Vmaxpu=1.2 model=1 kW=15.2502 kvar=3.0966851864006917 Phases=2

New Load.load_p1ulv12485 conn=wye bus1=p1ulv12485.1.2 kV=0.2080002494301389 Vminpu=0.8 Vmaxpu=1.2 model=1 kW=15.7502 kvar=3.198214516717694 Phases=2

New Load.load_p1ulv12486 conn=wye bus1=p1ulv12486.1.2 kV=0.2080002494301389 Vminpu=0.8 Vmaxpu=1.2 model=1 kW=17.270200000000003 kvar=3.5068636808813807 Phases=2

New Load.load_p1ulv12487 conn=wye bus1=p1ulv12487.1.2 kV=0.2080002494301389 Vminpu=0.8 Vmaxpu=1.2 model=1 kW=18.3802 kvar=3.7322587941851246 Phases=2

New Load.load_p1ulv12488 conn=wye bus1=p1ulv12488.1.2 kV=0.2080002494301389 Vminpu=0.8 Vmaxpu=1.2 model=1 kW=13.2801 kvar=2.6966393190856404 Phases=2

New Load.load_p1ulv12489 conn=wye bus1=p1ulv12488.1.2 kV=0.2080002494301389 Vminpu=0.8 Vmaxpu=1.2 model=1 kW=13.840100000000001 kvar=2.8103521690406827 Phases=2

New Load.load_p1ulv12490 conn=wye bus1=p1ulv12490.1.2 kV=0.2080002494301389 Vminpu=0.8 Vmaxpu=1.2 model=1 kW=14.6501 kvar=2.982486510065142 Phases=2

New Load.load_p1ulv12491 conn=wye bus1=p1ulv12491.1.2 kV=0.2080002494301389 Vminpu=0.8 Vmaxpu=1.2 model=1 kW=15.4402 kvar=3.127178218208362 Phases=2

New Load.load_p1ulv12492 conn=wye bus1=p1ulv12492.1.2 kV=0.2080002494301389 Vminpu=0.8 Vmaxpu=1.2 model=1 kW=15.3302 kvar=3.1129298792514124 Phases=2

New Load.load_p1ulv12493 conn=wye bus1=p1ulv12493.1.2 kV=0.2080002494301389 Vminpu=0.8 Vmaxpu=1.2 model=1 kW=13.590100000000001 kvar=2.7595875038821815 Phases=2

New Load.load_p1ulv12494 conn=wye bus1=p1ulv12494.1.2 kV=0.2080002494301389 Vminpu=0.8 Vmaxpu=1.2 model=1 kW=16.2302 kvar=3.30416533372873 Phases=2

New Load.load_p1ulv12495 conn=wye bus1=p1ulv12492.1.2 kV=0.2080002494301389 Vminpu=0.8 Vmaxpu=1.2 model=1 kW=15.070200000000002 kvar=3.0601346274865717 Phases=2

New Load.load_p1ulv12496 conn=wye bus1=p1ulv12496.1.2.3 kV=0.48 Vminpu=0.8 Vmaxpu=1.2 model=1 kW=22.4002 kvar=4.548554609933823 Phases=3

New Load.load_p1ulv12497 conn=wye bus1=p1ulv12496.1.2.3 kV=0.48 Vminpu=0.8 Vmaxpu=1.2 model=1 kW=22.8902 kvar=4.648053353644484 Phases=3

New Load.load_p1ulv12498 conn=wye bus1=p1ulv12498.1.2 kV=0.2080002494301389 Vminpu=0.8 Vmaxpu=1.2 model=1 kW=15.4502 kvar=3.1372969185274933 Phases=2

New Load.load_p1ulv12499 conn=wye bus1=p1ulv12499.1.2 kV=0.2080002494301389 Vminpu=0.8 Vmaxpu=1.2 model=1 kW=16.680200000000003 kvar=3.3870590711073185 Phases=2

New Load.load_p1ulv12500 conn=wye bus1=p1ulv12500.1.2 kV=0.2080002494301389 Vminpu=0.8 Vmaxpu=1.2 model=1 kW=11.3501 kvar=2.3106681959775264 Phases=2

New Load.load_p1ulv12501 conn=wye bus1=p1ulv12501.1.2 kV=0.2080002494301389 Vminpu=0.8 Vmaxpu=1.2 model=1 kW=13.5201 kvar=2.7382910990789537 Phases=2

New Load.load_p1ulv12502 conn=wye bus1=p1ulv12502.1.2 kV=0.2080002494301389 Vminpu=0.8 Vmaxpu=1.2 model=1 kW=14.090100000000001 kvar=2.8611168341991844 Phases=2

New Load.load_p1ulv12503 conn=wye bus1=p1ulv12503.1.2 kV=0.2080002494301389 Vminpu=0.8 Vmaxpu=1.2 model=1 kW=14.9001 kvar=3.033381836889961 Phases=2

New Load.load_p1ulv12504 conn=wye bus1=p1ulv12504.1.2 kV=0.2080002494301389 Vminpu=0.8 Vmaxpu=1.2 model=1 kW=13.510100000000001 kvar=2.7433428110314617 Phases=2

New Load.load_p1ulv12505 conn=wye bus1=p1ulv12505.1.2 kV=0.2080002494301389 Vminpu=0.8 Vmaxpu=1.2 model=1 kW=16.4102 kvar=3.3322332327361375 Phases=2

New Load.load_p1ulv12506 conn=wye bus1=p1ulv12506.1.2 kV=0.2080002494301389 Vminpu=0.8 Vmaxpu=1.2 model=1 kW=12.2901 kvar=2.502034624838848 Phases=2

New Load.load_p1ulv12507 conn=wye bus1=p1ulv12507.1.2 kV=0.2080002494301389 Vminpu=0.8 Vmaxpu=1.2 model=1 kW=12.2701 kvar=2.4915500718452956 Phases=2

New Load.load_p1ulv12508 conn=wye bus1=p1ulv12508.1.2 kV=0.2080002494301389 Vminpu=0.8 Vmaxpu=1.2 model=1 kW=14.090100000000001 kvar=2.8611168341991844 Phases=2

New Load.load_p1ulv12509 conn=wye bus1=p1ulv12509.1.2 kV=0.2080002494301389 Vminpu=0.8 Vmaxpu=1.2 model=1 kW=12.6901 kvar=2.5768347093115778 Phases=2

New Load.load_p1ulv12510 conn=wye bus1=p1ulv12510.1.2 kV=0.2080002494301389 Vminpu=0.8 Vmaxpu=1.2 model=1 kW=16.1402 kvar=3.2774073943649564 Phases=2

New Load.load_p1ulv12511 conn=wye bus1=p1ulv12511.1.2 kV=0.2080002494301389 Vminpu=0.8 Vmaxpu=1.2 model=1 kW=17.7102 kvar=3.596209491560343 Phases=2

New Load.load_p1ulv12512 conn=wye bus1=p1ulv12512.1.2 kV=0.2080002494301389 Vminpu=0.8 Vmaxpu=1.2 model=1 kW=14.8301 kvar=3.011380243068347 Phases=2

New Load.load_p1ulv12513 conn=wye bus1=p1ulv12513.1.2 kV=0.2080002494301389 Vminpu=0.8 Vmaxpu=1.2 model=1 kW=14.680100000000001 kvar=2.9809214439732465 Phases=2

New Load.load_p1ulv12514 conn=wye bus1=p1ulv12514.1.2 kV=0.2080002494301389 Vminpu=0.8 Vmaxpu=1.2 model=1 kW=12.9101 kvar=2.621507614651059 Phases=2

New Load.load_p1ulv12515 conn=wye bus1=p1ulv12515.1.2 kV=0.2080002494301389 Vminpu=0.8 Vmaxpu=1.2 model=1 kW=16.0102 kvar=3.251009768482536 Phases=2

New Load.load_p1ulv12516 conn=wye bus1=p1ulv12516.1.2 kV=0.2080002494301389 Vminpu=0.8 Vmaxpu=1.2 model=1 kW=13.340100000000001 kvar=2.7088228387236803 Phases=2

New Load.load_p1ulv12517 conn=wye bus1=p1ulv12516.1.2 kV=0.2080002494301389 Vminpu=0.8 Vmaxpu=1.2 model=1 kW=15.7802 kvar=3.196040058999986 Phases=2

New Load.load_p1ulv12518 conn=wye bus1=p1ulv12518.1.2 kV=0.2080002494301389 Vminpu=0.8 Vmaxpu=1.2 model=1 kW=14.1901 kvar=2.881422700262584 Phases=2

New Load.load_p1ulv12519 conn=wye bus1=p1ulv12519.1.2 kV=0.2080002494301389 Vminpu=0.8 Vmaxpu=1.2 model=1 kW=9.7401 kvar=1.9778116604412652 Phases=2

New Load.load_p1ulv12520 conn=wye bus1=p1ulv12520.1.2 kV=0.2080002494301389 Vminpu=0.8 Vmaxpu=1.2 model=1 kW=3.7300400000000002 kvar=0.7593664194785962 Phases=2

New Load.load_p1ulv12521 conn=wye bus1=p1ulv12520.1.2 kV=0.2080002494301389 Vminpu=0.8 Vmaxpu=1.2 model=1 kW=3.78004 kvar=0.7695454848435601 Phases=2

New Load.load_p1ulv12522 conn=wye bus1=p1ulv12522.1.2 kV=0.2080002494301389 Vminpu=0.8 Vmaxpu=1.2 model=1 kW=3.29003 kvar=0.6697886084538411 Phases=2

New Load.load_p1ulv12523 conn=wye bus1=p1ulv12523.1.2 kV=0.2080002494301389 Vminpu=0.8 Vmaxpu=1.2 model=1 kW=3.52004 kvar=0.7092301716051945 Phases=2

New Load.load_p1ulv12524 conn=wye bus1=p1ulv12524.1.2 kV=0.2080002494301389 Vminpu=0.8 Vmaxpu=1.2 model=1 kW=3.77004 kvar=0.7694756260336619 Phases=2

New Load.load_p1ulv12525 conn=wye bus1=p1ulv12525.1.2 kV=0.2080002494301389 Vminpu=0.8 Vmaxpu=1.2 model=1 kW=3.51004 kvar=0.7109053401536299 Phases=2

New Load.load_p1ulv12526 conn=wye bus1=p1ulv12526.1.2 kV=0.2080002494301389 Vminpu=0.8 Vmaxpu=1.2 model=1 kW=3.53004 kvar=0.7204909600226704 Phases=2

New Load.load_p1ulv12527 conn=wye bus1=p1ulv12527.1.2 kV=0.2080002494301389 Vminpu=0.8 Vmaxpu=1.2 model=1 kW=3.21003 kvar=0.6501428670480555 Phases=2

New Load.load_p1ulv12528 conn=wye bus1=p1ulv12528.1.2 kV=0.2080002494301389 Vminpu=0.8 Vmaxpu=1.2 model=1 kW=3.41003 kvar=0.6906498322195993 Phases=2
