New Line.l(r:p1ulv8462-udm12630) Units=km Length=0.011938700000000002 bus1=udm12630.1.2 bus2=p1ulv8462.1.2 switch=n enabled=y phases=2 Linecode=1P_UG_AL_1/0_Brenau_0_416_0_2_2

New Line.l(r:p1ulv7121-udm12628) Units=km Length=0.00801989 bus1=udm12628.1.2 bus2=p1ulv7121.1.2 switch=n enabled=y phases=2 Linecode=1P_UG_AL_1/0_Brenau_0_416_0_2_2

New Line.l(r:p1ulv8461-udm12628) Units=km Length=0.0125685 bus1=udm12628.1.2 bus2=p1ulv8461.1.2 switch=n enabled=y phases=2 Linecode=1P_UG_AL_1/0_Brenau_0_416_0_2_2

New Line.l(r:udm12628-udm12630) Units=km Length=0.009242780000000003 bus1=udm12630.1.2 bus2=udm12628.1.2 switch=n enabled=y phases=2 Linecode=1P_UG_AL_1/0_Brenau_0_416_0_2_2

New Line.l(r:udm12630-udt3218lv) Units=km Length=0.009242780000000003 bus1=udt3218lv.1.2 bus2=udm12630.1.2 switch=n enabled=y phases=2 Linecode=1P_UG_AL_4/0_Sweetbriar_0_416_0_2_2

New Line.l(r:p1ulv8484-udm12631) Units=km Length=0.0112654 bus1=udm12631.1.2 bus2=p1ulv8484.1.2 switch=n enabled=y phases=2 Linecode=1P_UG_AL_1/0_Brenau_0_416_0_2_2

New Line.l(r:udm12631-udt3218lv) Units=km Length=0.0315667 bus1=udt3218lv.1.2 bus2=udm12631.1.2 switch=n enabled=y phases=2 Linecode=1P_UG_AL_1/0_Brenau_0_416_0_2_2

New Line.l(r:p1ulv8485-udt3219lv) Units=km Length=0.013919800000000001 bus1=udt3219lv.1.2 bus2=p1ulv8485.1.2 switch=n enabled=y phases=2 Linecode=1P_UG_AL_1/0_Brenau_0_416_0_2_2

New Line.l(r:p1ulv7124-udm12633) Units=km Length=0.016812 bus1=udm12633.1.2 bus2=p1ulv7124.1.2 switch=n enabled=y phases=2 Linecode=1P_UG_AL_1/0_Brenau_0_416_0_2_2

New Line.l(r:p1ulv23931-udm12636) Units=km Length=0.025522700000000002 bus1=udm12636.1.2 bus2=p1ulv23931.1.2 switch=n enabled=y phases=2 Linecode=1P_UG_AL_1/0_Brenau_0_416_0_2_2

New Line.l(r:udm12633-udm12636) Units=km Length=0.00975666 bus1=udm12633.1.2 bus2=udm12636.1.2 switch=n enabled=y phases=2 Linecode=1P_UG_AL_1/0_Brenau_0_416_0_2_2

New Line.l(r:udm12633-udt3219lv) Units=km Length=0.00975666 bus1=udt3219lv.1.2 bus2=udm12633.1.2 switch=n enabled=y phases=2 Linecode=1P_UG_AL_4/0_Sweetbriar_0_416_0_2_2

New Line.l(r:p1ulv8482-udm12634) Units=km Length=0.013734 bus1=udm12634.1.2 bus2=p1ulv8482.1.2 switch=n enabled=y phases=2 Linecode=1P_UG_AL_1/0_Brenau_0_416_0_2_2

New Line.l(r:p1ulv7122-udm12632) Units=km Length=0.0173108 bus1=udm12632.1.2 bus2=p1ulv7122.1.2 switch=n enabled=y phases=2 Linecode=1P_UG_AL_1/0_Brenau_0_416_0_2_2

New Line.l(r:udm12632-udm12634) Units=km Length=0.00975666 bus1=udm12634.1.2 bus2=udm12632.1.2 switch=n enabled=y phases=2 Linecode=1P_UG_AL_1/0_Brenau_0_416_0_2_2

New Line.l(r:udm12634-udt3219lv) Units=km Length=0.00974272 bus1=udt3219lv.1.2 bus2=udm12634.1.2 switch=n enabled=y phases=2 Linecode=1P_UG_AL_4/0_Sweetbriar_0_416_0_2_2

New Line.l(r:p1ulv7996-udm14260) Units=km Length=0.0413908 bus1=udm14260.1.2 bus2=p1ulv7996.1.2 switch=n enabled=y phases=2 Linecode=1P_OH_AL_4/0_Zuzara_0_416_0_2_2

New Line.l(r:udm14260-udt3655lv) Units=km Length=0.03859170000000001 bus1=udt3655lv.1.2 bus2=udm14260.1.2 switch=n enabled=y phases=2 Linecode=1P_OH_AL_4/0_Zuzara_0_416_0_2_2

New Line.l(r:p1ulv23507-udm14261) Units=km Length=0.0368705 bus1=udm14261.1.2 bus2=p1ulv23507.1.2 switch=n enabled=y phases=2 Linecode=1P_OH_AL_4/0_Zuzara_0_416_0_2_2

New Line.l(r:udm14261-udt3655lv) Units=km Length=0.0192957 bus1=udt3655lv.1.2 bus2=udm14261.1.2 switch=n enabled=y phases=2 Linecode=1P_OH_AL_2/0_Rucina_0_416_0_2_2

New Line.l(r:p1ulv9964-udt3826lv) Units=km Length=0.0134048 bus1=udt3826lv.1.2 bus2=p1ulv9964.1.2 switch=n enabled=y phases=2 Linecode=1P_UG_AL_1/0_Brenau_0_416_0_2_2

New Line.l(r:p1ulv8424-udm14953) Units=km Length=0.0165136 bus1=udm14953.1.2 bus2=p1ulv8424.1.2 switch=n enabled=y phases=2 Linecode=1P_UG_AL_1/0_Brenau_0_416_0_2_2

New Line.l(r:p1ulv9965-udm14953) Units=km Length=0.0129531 bus1=udm14953.1.2 bus2=p1ulv9965.1.2 switch=n enabled=y phases=2 Linecode=1P_UG_AL_1/0_Brenau_0_416_0_2_2

New Line.l(r:p1ulv8423-udm14952) Units=km Length=0.0175561 bus1=udm14952.1.2 bus2=p1ulv8423.1.2 switch=n enabled=y phases=2 Linecode=1P_UG_AL_1/0_Brenau_0_416_0_2_2

New Line.l(r:p1ulv8422-udm14951) Units=km Length=0.0187716 bus1=udm14951.1.2 bus2=p1ulv8422.1.2 switch=n enabled=y phases=2 Linecode=1P_UG_AL_1/0_Brenau_0_416_0_2_2

New Line.l(r:p1ulv9966-udm14951) Units=km Length=0.0125575 bus1=udm14951.1.2 bus2=p1ulv9966.1.2 switch=n enabled=y phases=2 Linecode=1P_UG_AL_1/0_Brenau_0_416_0_2_2

New Line.l(r:udm14951-udm14952) Units=km Length=0.00771576 bus1=udm14952.1.2 bus2=udm14951.1.2 switch=n enabled=y phases=2 Linecode=1P_UG_AL_1/0_Brenau_0_416_0_2_2

New Line.l(r:udm14952-udm14953) Units=km Length=0.007710440000000001 bus1=udm14953.1.2 bus2=udm14952.1.2 switch=n enabled=y phases=2 Linecode=1P_UG_AL_2/0_Converse_0_416_0_2_2

New Line.l(r:udm14953-udt3826lv) Units=km Length=0.0077073 bus1=udt3826lv.1.2 bus2=udm14953.1.2 switch=n enabled=y phases=2 Linecode=1P_UG_AL_4/0_Sweetbriar_0_416_0_2_2

New Line.l(r:p1ulv9963-udm14955) Units=km Length=0.0161879 bus1=udm14955.1.2 bus2=p1ulv9963.1.2 switch=n enabled=y phases=2 Linecode=1P_UG_AL_1/0_Brenau_0_416_0_2_2

New Line.l(r:p1ulv15713-udm14955) Units=km Length=0.0736003 bus1=udm14955.1.2 bus2=p1ulv15713.1.2 switch=n enabled=y phases=2 Linecode=1P_UG_AL_1/0_Brenau_0_416_0_2_2

New Line.l(r:p1ulv8421-udm14950) Units=km Length=0.0156999 bus1=udm14950.1.2 bus2=p1ulv8421.1.2 switch=n enabled=y phases=2 Linecode=1P_UG_AL_1/0_Brenau_0_416_0_2_2

New Line.l(r:p1ulv8425-udm14950) Units=km Length=0.012200100000000002 bus1=udm14950.1.2 bus2=p1ulv8425.1.2 switch=n enabled=y phases=2 Linecode=1P_UG_AL_1/0_Brenau_0_416_0_2_2

New Line.l(r:p1ulv8420-udm14949) Units=km Length=0.0142662 bus1=udm14949.1.2 bus2=p1ulv8420.1.2 switch=n enabled=y phases=2 Linecode=1P_UG_AL_1/0_Brenau_0_416_0_2_2

New Line.l(r:udm14949-udm14950) Units=km Length=0.00871122 bus1=udm14950.1.2 bus2=udm14949.1.2 switch=n enabled=y phases=2 Linecode=1P_UG_AL_1/0_Brenau_0_416_0_2_2

New Line.l(r:udm14950-udm14955) Units=km Length=0.00803645 bus1=udm14955.1.2 bus2=udm14950.1.2 switch=n enabled=y phases=2 Linecode=1P_UG_AL_2/0_Converse_0_416_0_2_2

New Line.l(r:udm14955-udt3826lv) Units=km Length=0.00769103 bus1=udt3826lv.1.2 bus2=udm14955.1.2 switch=n enabled=y phases=2 Linecode=1P_UG_AL_4/0_Sweetbriar_0_416_0_2_2

New Line.l(r:p1ulv8426-udt3827lv) Units=km Length=0.0115171 bus1=udt3827lv.1.2 bus2=p1ulv8426.1.2 switch=n enabled=y phases=2 Linecode=1P_UG_AL_1/0_Brenau_0_416_0_2_2

New Line.l(r:p1ulv8429-udm14961) Units=km Length=0.0160448 bus1=udm14961.1.2 bus2=p1ulv8429.1.2 switch=n enabled=y phases=2 Linecode=1P_UG_AL_1/0_Brenau_0_416_0_2_2

New Line.l(r:udm14961-udt3827lv) Units=km Length=0.007504050000000001 bus1=udt3827lv.1.2 bus2=udm14961.1.2 switch=n enabled=y phases=2 Linecode=1P_UG_AL_1/0_Brenau_0_416_0_2_2

New Line.l(r:p1ulv9948-udm14962) Units=km Length=0.0206715 bus1=udm14962.1.2 bus2=p1ulv9948.1.2 switch=n enabled=y phases=2 Linecode=1P_UG_AL_1/0_Brenau_0_416_0_2_2

New Line.l(r:udm14962-udt3827lv) Units=km Length=0.007504050000000001 bus1=udt3827lv.1.2 bus2=udm14962.1.2 switch=n enabled=y phases=2 Linecode=1P_UG_AL_1/0_Brenau_0_416_0_2_2

New Line.l(r:p1ulv8427-udm14963) Units=km Length=0.00941134 bus1=udm14963.1.2 bus2=p1ulv8427.1.2 switch=n enabled=y phases=2 Linecode=1P_UG_AL_1/0_Brenau_0_416_0_2_2

New Line.l(r:p1ulv9962-udm14963) Units=km Length=0.0124533 bus1=udm14963.1.2 bus2=p1ulv9962.1.2 switch=n enabled=y phases=2 Linecode=1P_UG_AL_1/0_Brenau_0_416_0_2_2

New Line.l(r:udm14963-udt3828lv) Units=km Length=0.00870619 bus1=udt3828lv.1.2 bus2=udm14963.1.2 switch=n enabled=y phases=2 Linecode=1P_UG_AL_1/0_Brenau_0_416_0_2_2

New Line.l(r:p1ulv9967-udm14965) Units=km Length=0.0131801 bus1=udm14965.1.2 bus2=p1ulv9967.1.2 switch=n enabled=y phases=2 Linecode=1P_UG_AL_1/0_Brenau_0_416_0_2_2

New Line.l(r:udm14965-udt3828lv) Units=km Length=0.00871122 bus1=udt3828lv.1.2 bus2=udm14965.1.2 switch=n enabled=y phases=2 Linecode=1P_UG_AL_1/0_Brenau_0_416_0_2_2

New Line.l(r:p1ulv9901-udm14969) Units=km Length=0.00949764 bus1=udm14969.1.2 bus2=p1ulv9901.1.2 switch=n enabled=y phases=2 Linecode=1P_UG_AL_1/0_Brenau_0_416_0_2_2

New Line.l(r:p1ulv8430-udm14967) Units=km Length=0.0159779 bus1=udm14967.1.2 bus2=p1ulv8430.1.2 switch=n enabled=y phases=2 Linecode=1P_UG_AL_1/0_Brenau_0_416_0_2_2

New Line.l(r:p1ulv8428-udm14966) Units=km Length=0.014958 bus1=udm14966.1.2 bus2=p1ulv8428.1.2 switch=n enabled=y phases=2 Linecode=1P_UG_AL_1/0_Brenau_0_416_0_2_2

New Line.l(r:udm14966-udm14967) Units=km Length=0.00746418 bus1=udm14967.1.2 bus2=udm14966.1.2 switch=n enabled=y phases=2 Linecode=1P_UG_AL_1/0_Brenau_0_416_0_2_2

New Line.l(r:udm14967-udm14969) Units=km Length=0.00584186 bus1=udm14969.1.2 bus2=udm14967.1.2 switch=n enabled=y phases=2 Linecode=1P_UG_AL_4/0_Sweetbriar_0_416_0_2_2

New Line.l(r:udm14969-udt3829lv) Units=km Length=0.00582835 bus1=udt3829lv.1.2 bus2=udm14969.1.2 switch=n enabled=y phases=2 Linecode=1P_UG_AL_4/0_Sweetbriar_0_416_0_2_2

New Line.l(r:p1ulv9902-udm14970) Units=km Length=0.009468620000000002 bus1=udm14970.1.2 bus2=p1ulv9902.1.2 switch=n enabled=y phases=2 Linecode=1P_UG_AL_1/0_Brenau_0_416_0_2_2

New Line.l(r:p1ulv9900-udm14968) Units=km Length=0.0151334 bus1=udm14968.1.2 bus2=p1ulv9900.1.2 switch=n enabled=y phases=2 Linecode=1P_UG_AL_1/0_Brenau_0_416_0_2_2

New Line.l(r:udm14968-udm14970) Units=km Length=0.008359 bus1=udm14970.1.2 bus2=udm14968.1.2 switch=n enabled=y phases=2 Linecode=1P_UG_AL_1/0_Brenau_0_416_0_2_2

New Line.l(r:udm14970-udt3829lv) Units=km Length=0.0178963 bus1=udt3829lv.1.2 bus2=udm14970.1.2 switch=n enabled=y phases=2 Linecode=1P_UG_AL_1/0_Brenau_0_416_0_2_2

New Line.l(r:p1ulv8438-udt3830lv) Units=km Length=0.0129049 bus1=udt3830lv.1.2 bus2=p1ulv8438.1.2 switch=n enabled=y phases=2 Linecode=1P_OH_AL_2/0_Rucina_0_416_0_2_2

New Line.l(r:p1ulv8441-udt3830lv) Units=km Length=0.013723 bus1=udt3830lv.1.2 bus2=p1ulv8441.1.2 switch=n enabled=y phases=2 Linecode=1P_OH_AL_2/0_Rucina_0_416_0_2_2

New Line.l(r:p1ulv13597-udt3830lv) Units=km Length=0.038352 bus1=udt3830lv.1.2 bus2=p1ulv13597.1.2 switch=n enabled=y phases=2 Linecode=1P_OH_AL_4/0_Zuzara_0_416_0_2_2

New Line.l(r:p1ulv8432-udm14971) Units=km Length=0.0125523 bus1=udm14971.1.2 bus2=p1ulv8432.1.2 switch=n enabled=y phases=2 Linecode=1P_OH_AL_2/0_Rucina_0_416_0_2_2

New Line.l(r:p1ulv8442-udm14971) Units=km Length=0.0137315 bus1=udm14971.1.2 bus2=p1ulv8442.1.2 switch=n enabled=y phases=2 Linecode=1P_OH_AL_2/0_Rucina_0_416_0_2_2

New Line.l(r:p1ulv8434-udm14972) Units=km Length=0.0116467 bus1=udm14972.1.2 bus2=p1ulv8434.1.2 switch=n enabled=y phases=2 Linecode=1P_OH_AL_2/0_Rucina_0_416_0_2_2

New Line.l(r:p1ulv8443-udm14972) Units=km Length=0.014065 bus1=udm14972.1.2 bus2=p1ulv8443.1.2 switch=n enabled=y phases=2 Linecode=1P_OH_AL_2/0_Rucina_0_416_0_2_2

New Line.l(r:udm14971-udm14972) Units=km Length=0.0158689 bus1=udm14971.1.2 bus2=udm14972.1.2 switch=n enabled=y phases=2 Linecode=1P_OH_AL_2/0_Rucina_0_416_0_2_2

New Line.l(r:udm14971-udt3830lv) Units=km Length=0.0140264 bus1=udt3830lv.1.2 bus2=udm14971.1.2 switch=n enabled=y phases=2 Linecode=1P_OH_AL_2/0_Rucina_0_416_0_2_2

New Line.l(r:p1ulv8436-udm14973) Units=km Length=0.0129689 bus1=udm14973.1.2 bus2=p1ulv8436.1.2 switch=n enabled=y phases=2 Linecode=1P_UG_AL_1/0_Brenau_0_416_0_2_2

New Line.l(r:p1ulv8440-udm14973) Units=km Length=0.0106975 bus1=udm14973.1.2 bus2=p1ulv8440.1.2 switch=n enabled=y phases=2 Linecode=1P_UG_AL_1/0_Brenau_0_416_0_2_2

New Line.l(r:udm14973-udt3830lv) Units=km Length=0.014234200000000002 bus1=udt3830lv.1.2 bus2=udm14973.1.2 switch=n enabled=y phases=2 Linecode=1P_OH_AL_2/0_Rucina_0_416_0_2_2

New Line.l(r:p1ulv8435-udm14980) Units=km Length=0.00781855 bus1=udm14980.1.2 bus2=p1ulv8435.1.2 switch=n enabled=y phases=2 Linecode=1P_OH_AL_2/0_Rucina_0_416_0_2_2

New Line.l(r:udm14980-udt3831lv) Units=km Length=0.0381992 bus1=udt3831lv.1.2 bus2=udm14980.1.2 switch=n enabled=y phases=2 Linecode=1P_OH_AL_4/0_Zuzara_0_416_0_2_2

New Line.l(r:p1ulv20620-udm14981) Units=km Length=0.0264165 bus1=udm14981.1.2 bus2=p1ulv20620.1.2 switch=n enabled=y phases=2 Linecode=1P_OH_AL_2/0_Rucina_0_416_0_2_2

New Line.l(r:udm14981-udt3831lv) Units=km Length=0.0351179 bus1=udt3831lv.1.2 bus2=udm14981.1.2 switch=n enabled=y phases=2 Linecode=1P_OH_AL_4/0_Zuzara_0_416_0_2_2

New Line.l(r:p1ulv8445-udt3832lv) Units=km Length=0.0177981 bus1=udt3832lv.1.2 bus2=p1ulv8445.1.2 switch=n enabled=y phases=2 Linecode=1P_UG_AL_1/0_Brenau_0_416_0_2_2

New Line.l(r:p1ulv8444-udm14982) Units=km Length=0.0182788 bus1=udm14982.1.2 bus2=p1ulv8444.1.2 switch=n enabled=y phases=2 Linecode=1P_UG_AL_1/0_Brenau_0_416_0_2_2

New Line.l(r:udm14982-udt3832lv) Units=km Length=0.00679784 bus1=udt3832lv.1.2 bus2=udm14982.1.2 switch=n enabled=y phases=2 Linecode=1P_UG_AL_1/0_Brenau_0_416_0_2_2

New Line.l(r:p1ulv8446-udm14984) Units=km Length=0.0175753 bus1=udm14984.1.2 bus2=p1ulv8446.1.2 switch=n enabled=y phases=2 Linecode=1P_UG_AL_1/0_Brenau_0_416_0_2_2

New Line.l(r:udm14984-udt3832lv) Units=km Length=0.006785990000000001 bus1=udt3832lv.1.2 bus2=udm14984.1.2 switch=n enabled=y phases=2 Linecode=1P_UG_AL_1/0_Brenau_0_416_0_2_2

New Line.l(r:p1ulv8448-udt3833lv) Units=km Length=0.0229712 bus1=udt3833lv.1.2 bus2=p1ulv8448.1.2 switch=n enabled=y phases=2 Linecode=1P_UG_AL_1/0_Brenau_0_416_0_2_2

New Line.l(r:p1ulv8449-udt3833lv) Units=km Length=0.018474 bus1=udt3833lv.1.2 bus2=p1ulv8449.1.2 switch=n enabled=y phases=2 Linecode=1P_UG_AL_1/0_Brenau_0_416_0_2_2

New Line.l(r:p1ulv8451-udm14987) Units=km Length=0.0164903 bus1=udm14987.1.2 bus2=p1ulv8451.1.2 switch=n enabled=y phases=2 Linecode=1P_UG_AL_1/0_Brenau_0_416_0_2_2

New Line.l(r:udm14987-udt3833lv) Units=km Length=0.00923366 bus1=udt3833lv.1.2 bus2=udm14987.1.2 switch=n enabled=y phases=2 Linecode=1P_UG_AL_1/0_Brenau_0_416_0_2_2

New Line.l(r:p1ulv8456-udt3834lv) Units=km Length=0.00999853 bus1=udt3834lv.1.2 bus2=p1ulv8456.1.2 switch=n enabled=y phases=2 Linecode=1P_UG_AL_1/0_Brenau_0_416_0_2_2

New Line.l(r:p1ulv8453-udm14989) Units=km Length=0.011107 bus1=udm14989.1.2 bus2=p1ulv8453.1.2 switch=n enabled=y phases=2 Linecode=1P_UG_AL_1/0_Brenau_0_416_0_2_2

New Line.l(r:p1ulv8455-udm14989) Units=km Length=0.010909100000000001 bus1=udm14989.1.2 bus2=p1ulv8455.1.2 switch=n enabled=y phases=2 Linecode=1P_UG_AL_1/0_Brenau_0_416_0_2_2

New Line.l(r:p1ulv8452-udm14988) Units=km Length=0.014520300000000002 bus1=udm14988.1.2 bus2=p1ulv8452.1.2 switch=n enabled=y phases=2 Linecode=1P_UG_AL_1/0_Brenau_0_416_0_2_2

New Line.l(r:p1ulv8454-udm14988) Units=km Length=0.00795601 bus1=udm14988.1.2 bus2=p1ulv8454.1.2 switch=n enabled=y phases=2 Linecode=1P_UG_AL_1/0_Brenau_0_416_0_2_2

New Line.l(r:udm14988-udm14989) Units=km Length=0.00923366 bus1=udm14989.1.2 bus2=udm14988.1.2 switch=n enabled=y phases=2 Linecode=1P_UG_AL_1/0_Brenau_0_416_0_2_2

New Line.l(r:udm14989-udt3834lv) Units=km Length=0.00924689 bus1=udt3834lv.1.2 bus2=udm14989.1.2 switch=n enabled=y phases=2 Linecode=1P_UG_AL_4/0_Sweetbriar_0_416_0_2_2

New Line.l(r:p1ulv8458-udm14994) Units=km Length=0.0158403 bus1=udm14994.1.2 bus2=p1ulv8458.1.2 switch=n enabled=y phases=2 Linecode=1P_UG_AL_1/0_Brenau_0_416_0_2_2

New Line.l(r:p1ulv8457-udm14993) Units=km Length=0.00800562 bus1=udm14993.1.2 bus2=p1ulv8457.1.2 switch=n enabled=y phases=2 Linecode=1P_UG_AL_1/0_Brenau_0_416_0_2_2

New Line.l(r:p1ulv8459-udm14995) Units=km Length=0.0145371 bus1=udm14995.1.2 bus2=p1ulv8459.1.2 switch=n enabled=y phases=2 Linecode=1P_UG_AL_1/0_Brenau_0_416_0_2_2

New Line.l(r:p1ulv8460-udm14996) Units=km Length=0.0136018 bus1=udm14996.1.2 bus2=p1ulv8460.1.2 switch=n enabled=y phases=2 Linecode=1P_UG_AL_1/0_Brenau_0_416_0_2_2

New Line.l(r:udm14995-udm14996) Units=km Length=0.009242780000000003 bus1=udm14995.1.2 bus2=udm14996.1.2 switch=n enabled=y phases=2 Linecode=1P_UG_AL_1/0_Brenau_0_416_0_2_2

New Line.l(r:udm14993-udm14995) Units=km Length=0.00923366 bus1=udm14993.1.2 bus2=udm14995.1.2 switch=n enabled=y phases=2 Linecode=1P_UG_AL_1/0_Brenau_0_416_0_2_2

New Line.l(r:udm14993-udm14994) Units=km Length=0.00924689 bus1=udm14994.1.2 bus2=udm14993.1.2 switch=n enabled=y phases=2 Linecode=1P_UG_AL_4/0_Sweetbriar_0_416_0_2_2

New Line.l(r:udm14994-udt3834lv) Units=km Length=0.00923366 bus1=udt3834lv.1.2 bus2=udm14994.1.2 switch=n enabled=y phases=2 Linecode=1P_UG_AL_4/0_Sweetbriar_0_416_0_2_2

New Line.l(r:p1ulv8463-udm14997) Units=km Length=0.00963527 bus1=udm14997.1.2 bus2=p1ulv8463.1.2 switch=n enabled=y phases=2 Linecode=1P_UG_AL_1/0_Brenau_0_416_0_2_2

New Line.l(r:udm14997-udt3835lv) Units=km Length=0.00674036 bus1=udt3835lv.1.2 bus2=udm14997.1.2 switch=n enabled=y phases=2 Linecode=1P_UG_AL_1/0_Brenau_0_416_0_2_2

New Line.l(r:p1ulv8467-udm14998) Units=km Length=0.012325 bus1=udm14998.1.2 bus2=p1ulv8467.1.2 switch=n enabled=y phases=2 Linecode=1P_UG_AL_1/0_Brenau_0_416_0_2_2

New Line.l(r:udm14998-udt3835lv) Units=km Length=0.00861706 bus1=udt3835lv.1.2 bus2=udm14998.1.2 switch=n enabled=y phases=2 Linecode=1P_UG_AL_1/0_Brenau_0_416_0_2_2

New Line.l(r:p1ulv8470-udt3836lv) Units=km Length=0.0105494 bus1=udt3836lv.1.2 bus2=p1ulv8470.1.2 switch=n enabled=y phases=2 Linecode=1P_UG_AL_1/0_Brenau_0_416_0_2_2

New Line.l(r:p1ulv8471-udt3836lv) Units=km Length=0.0142482 bus1=udt3836lv.1.2 bus2=p1ulv8471.1.2 switch=n enabled=y phases=2 Linecode=1P_UG_AL_1/0_Brenau_0_416_0_2_2

New Line.l(r:p1ulv8472-udm15003) Units=km Length=0.0110657 bus1=udm15003.1.2 bus2=p1ulv8472.1.2 switch=n enabled=y phases=2 Linecode=1P_UG_AL_1/0_Brenau_0_416_0_2_2

New Line.l(r:p1ulv8464-udm14999) Units=km Length=0.00788384 bus1=udm14999.1.2 bus2=p1ulv8464.1.2 switch=n enabled=y phases=2 Linecode=1P_UG_AL_1/0_Brenau_0_416_0_2_2

New Line.l(r:p1ulv8469-udm15000) Units=km Length=0.00809075 bus1=udm15000.1.2 bus2=p1ulv8469.1.2 switch=n enabled=y phases=2 Linecode=1P_UG_AL_1/0_Brenau_0_416_0_2_2

New Line.l(r:udm14999-udm15000) Units=km Length=0.07316350000000002 bus1=udm14999.1.2 bus2=udm15000.1.2 switch=n enabled=y phases=2 Linecode=1P_UG_AL_1/0_Brenau_0_416_0_2_2

New Line.l(r:udm14999-udm15003) Units=km Length=0.0192705 bus1=udm15003.1.2 bus2=udm14999.1.2 switch=n enabled=y phases=2 Linecode=1P_UG_AL_4/0_Sweetbriar_0_416_0_2_2

New Line.l(r:udm15003-udt3836lv) Units=km Length=0.00830434 bus1=udt3836lv.1.2 bus2=udm15003.1.2 switch=n enabled=y phases=2 Linecode=1P_UG_AL_4/0_Sweetbriar_0_416_0_2_2

New Line.l(r:p1ulv8474-udm15004) Units=km Length=0.0126803 bus1=udm15004.1.2 bus2=p1ulv8474.1.2 switch=n enabled=y phases=2 Linecode=1P_UG_AL_1/0_Brenau_0_416_0_2_2

New Line.l(r:udm15004-udt3836lv) Units=km Length=0.103674 bus1=udt3836lv.1.2 bus2=udm15004.1.2 switch=n enabled=y phases=2 Linecode=1P_UG_AL_1/0_Brenau_0_416_0_2_2

New Line.l(r:p1ulv8487-udt3837lv) Units=km Length=0.017438400000000003 bus1=udt3837lv.1.2 bus2=p1ulv8487.1.2 switch=n enabled=y phases=2 Linecode=1P_UG_AL_1/0_Brenau_0_416_0_2_2

New Line.l(r:p1ulv8488-udt3837lv) Units=km Length=0.0153224 bus1=udt3837lv.1.2 bus2=p1ulv8488.1.2 switch=n enabled=y phases=2 Linecode=1P_UG_AL_1/0_Brenau_0_416_0_2_2

New Line.l(r:p1ulv8466-udm15005) Units=km Length=0.00814461 bus1=udm15005.1.2 bus2=p1ulv8466.1.2 switch=n enabled=y phases=2 Linecode=1P_UG_AL_1/0_Brenau_0_416_0_2_2

New Line.l(r:p1ulv8489-udm15005) Units=km Length=0.0152891 bus1=udm15005.1.2 bus2=p1ulv8489.1.2 switch=n enabled=y phases=2 Linecode=1P_UG_AL_1/0_Brenau_0_416_0_2_2

New Line.l(r:udm15005-udt3837lv) Units=km Length=0.0163467 bus1=udt3837lv.1.2 bus2=udm15005.1.2 switch=n enabled=y phases=2 Linecode=1P_UG_AL_1/0_Brenau_0_416_0_2_2

New Line.l(r:p1ulv8486-udm15006) Units=km Length=0.0227312 bus1=udm15006.1.2 bus2=p1ulv8486.1.2 switch=n enabled=y phases=2 Linecode=1P_UG_AL_1/0_Brenau_0_416_0_2_2

New Line.l(r:udm15006-udt3837lv) Units=km Length=0.0164157 bus1=udt3837lv.1.2 bus2=udm15006.1.2 switch=n enabled=y phases=2 Linecode=1P_UG_AL_1/0_Brenau_0_416_0_2_2

New Line.l(r:p1ulv8475-udm15010) Units=km Length=0.0174425 bus1=udm15010.1.2 bus2=p1ulv8475.1.2 switch=n enabled=y phases=2 Linecode=1P_UG_AL_1/0_Brenau_0_416_0_2_2

New Line.l(r:p1ulv8479-udm15010) Units=km Length=0.0141715 bus1=udm15010.1.2 bus2=p1ulv8479.1.2 switch=n enabled=y phases=2 Linecode=1P_UG_AL_1/0_Brenau_0_416_0_2_2

New Line.l(r:p1ulv8478-udm15013) Units=km Length=0.0139702 bus1=udm15013.1.2 bus2=p1ulv8478.1.2 switch=n enabled=y phases=2 Linecode=1P_UG_AL_1/0_Brenau_0_416_0_2_2

New Line.l(r:udm15010-udm15013) Units=km Length=0.00990568 bus1=udm15010.1.2 bus2=udm15013.1.2 switch=n enabled=y phases=2 Linecode=1P_UG_AL_1/0_Brenau_0_416_0_2_2

New Line.l(r:udm15010-udt3838lv) Units=km Length=0.00990484 bus1=udt3838lv.1.2 bus2=udm15010.1.2 switch=n enabled=y phases=2 Linecode=1P_UG_AL_4/0_Sweetbriar_0_416_0_2_2

New Line.l(r:p1ulv8476-udm15011) Units=km Length=0.0170909 bus1=udm15011.1.2 bus2=p1ulv8476.1.2 switch=n enabled=y phases=2 Linecode=1P_UG_AL_1/0_Brenau_0_416_0_2_2

New Line.l(r:p1ulv8480-udm15011) Units=km Length=0.0143671 bus1=udm15011.1.2 bus2=p1ulv8480.1.2 switch=n enabled=y phases=2 Linecode=1P_UG_AL_1/0_Brenau_0_416_0_2_2

New Line.l(r:p1ulv8481-udm15016) Units=km Length=0.014797800000000002 bus1=udm15016.1.2 bus2=p1ulv8481.1.2 switch=n enabled=y phases=2 Linecode=1P_UG_AL_1/0_Brenau_0_416_0_2_2

New Line.l(r:p1ulv8477-udm15012) Units=km Length=0.0166024 bus1=udm15012.1.2 bus2=p1ulv8477.1.2 switch=n enabled=y phases=2 Linecode=1P_UG_AL_1/0_Brenau_0_416_0_2_2

New Line.l(r:udm15012-udm15016) Units=km Length=0.00781918 bus1=udm15016.1.2 bus2=udm15012.1.2 switch=n enabled=y phases=2 Linecode=1P_UG_AL_1/0_Brenau_0_416_0_2_2

New Line.l(r:udm15011-udm15016) Units=km Length=0.00781918 bus1=udm15011.1.2 bus2=udm15016.1.2 switch=n enabled=y phases=2 Linecode=1P_UG_AL_1/0_Brenau_0_416_0_2_2

New Line.l(r:udm15011-udt3838lv) Units=km Length=0.0078076 bus1=udt3838lv.1.2 bus2=udm15011.1.2 switch=n enabled=y phases=2 Linecode=1P_UG_AL_4/0_Sweetbriar_0_416_0_2_2

New Line.l(r:p1ulv8648-udm15162) Units=km Length=0.0238398 bus1=udm15162.1.2 bus2=p1ulv8648.1.2 switch=n enabled=y phases=2 Linecode=1P_UG_AL_1/0_Brenau_0_416_0_2_2

New Line.l(r:p1ulv20169-udm15163) Units=km Length=0.0148942 bus1=udm15163.1.2 bus2=p1ulv20169.1.2 switch=n enabled=y phases=2 Linecode=1P_UG_AL_1/0_Brenau_0_416_0_2_2

New Line.l(r:udm15162-udm15163) Units=km Length=0.0341534 bus1=udm15162.1.2 bus2=udm15163.1.2 switch=n enabled=y phases=2 Linecode=1P_UG_AL_1/0_Brenau_0_416_0_2_2

New Line.l(r:udm15162-udt3866lv) Units=km Length=0.00844988 bus1=udt3866lv.1.2 bus2=udm15162.1.2 switch=n enabled=y phases=2 Linecode=1P_UG_AL_2/0_Converse_0_416_0_2_2

New Line.l(r:p1ulv8649-udt3867lv) Units=km Length=0.0199775 bus1=udt3867lv.1.2 bus2=p1ulv8649.1.2 switch=n enabled=y phases=2 Linecode=1P_UG_AL_1/0_Brenau_0_416_0_2_2

New Line.l(r:p1ulv13045-udt3867lv) Units=km Length=0.0267442 bus1=udt3867lv.1.2 bus2=p1ulv13045.1.2 switch=n enabled=y phases=2 Linecode=1P_UG_AL_1/0_Brenau_0_416_0_2_2

New Line.l(r:p1ulv25017-udt3867lv) Units=km Length=0.0138761 bus1=udt3867lv.1.2 bus2=p1ulv25017.1.2 switch=n enabled=y phases=2 Linecode=1P_UG_AL_1/0_Brenau_0_416_0_2_2

New Line.l(r:p1ulv21703-udt3868lv) Units=km Length=0.030131 bus1=udt3868lv.1.2 bus2=p1ulv21703.1.2 switch=n enabled=y phases=2 Linecode=1P_OH_AL_4/0_Zuzara_0_416_0_2_2

New Line.l(r:p1ulv8650-udm15167) Units=km Length=0.048724800000000006 bus1=udm15167.1.2 bus2=p1ulv8650.1.2 switch=n enabled=y phases=2 Linecode=1P_OH_AL_4/0_Zuzara_0_416_0_2_2

New Line.l(r:udm15167-udt3868lv) Units=km Length=0.0155284 bus1=udt3868lv.1.2 bus2=udm15167.1.2 switch=n enabled=y phases=2 Linecode=1P_OH_AL_2/0_Rucina_0_416_0_2_2

New Line.l(r:p1ulv8651-udm15169) Units=km Length=0.027838 bus1=udm15169.1.2 bus2=p1ulv8651.1.2 switch=n enabled=y phases=2 Linecode=1P_OH_AL_4/0_Zuzara_0_416_0_2_2

New Line.l(r:udm15169-udt3869lv) Units=km Length=0.0196841 bus1=udt3869lv.1.2 bus2=udm15169.1.2 switch=n enabled=y phases=2 Linecode=1P_OH_AL_2/0_Rucina_0_416_0_2_2

New Line.l(r:p1ulv22352-udm15170) Units=km Length=0.0243289 bus1=udm15170.1.2 bus2=p1ulv22352.1.2 switch=n enabled=y phases=2 Linecode=1P_OH_AL_2/0_Rucina_0_416_0_2_2

New Line.l(r:udm15170-udt3869lv) Units=km Length=0.019692 bus1=udt3869lv.1.2 bus2=udm15170.1.2 switch=n enabled=y phases=2 Linecode=1P_OH_AL_2/0_Rucina_0_416_0_2_2

New Line.l(r:p1ulv8652-udt3870lv) Units=km Length=0.0355022 bus1=udt3870lv.1.2 bus2=p1ulv8652.1.2 switch=n enabled=y phases=2 Linecode=1P_OH_AL_4/0_Zuzara_0_416_0_2_2

New Line.l(r:p1ulv8653-udm15172) Units=km Length=0.0281298 bus1=udm15172.1.2 bus2=p1ulv8653.1.2 switch=n enabled=y phases=2 Linecode=1P_OH_AL_4/0_Zuzara_0_416_0_2_2

New Line.l(r:udm15172-udt3870lv) Units=km Length=0.0350287 bus1=udt3870lv.1.2 bus2=udm15172.1.2 switch=n enabled=y phases=2 Linecode=1P_OH_AL_4/0_Zuzara_0_416_0_2_2

New Line.l(r:p1ulv13855-udm15173) Units=km Length=0.0316978 bus1=udm15173.1.2 bus2=p1ulv13855.1.2 switch=n enabled=y phases=2 Linecode=1P_OH_AL_4/0_Zuzara_0_416_0_2_2

New Line.l(r:udm15173-udt3870lv) Units=km Length=0.0195003 bus1=udt3870lv.1.2 bus2=udm15173.1.2 switch=n enabled=y phases=2 Linecode=1P_OH_AL_2/0_Rucina_0_416_0_2_2

New Line.l(r:p1ulv9869-udt4595lv) Units=km Length=0.0101505 bus1=udt4595lv.1.2 bus2=p1ulv9869.1.2 switch=n enabled=y phases=2 Linecode=1P_OH_AL_2/0_Rucina_0_416_0_2_2

New Line.l(r:p1ulv9892-udt4595lv) Units=km Length=0.0107723 bus1=udt4595lv.1.2 bus2=p1ulv9892.1.2 switch=n enabled=y phases=2 Linecode=1P_OH_AL_2/0_Rucina_0_416_0_2_2

New Line.l(r:p1ulv9871-udm17396) Units=km Length=0.0102663 bus1=udm17396.1.2 bus2=p1ulv9871.1.2 switch=n enabled=y phases=2 Linecode=1P_OH_AL_2/0_Rucina_0_416_0_2_2

New Line.l(r:p1ulv9873-udm17397) Units=km Length=0.016537600000000003 bus1=udm17397.1.2 bus2=p1ulv9873.1.2 switch=n enabled=y phases=2 Linecode=1P_OH_AL_2/0_Rucina_0_416_0_2_2

New Line.l(r:p1ulv9896-udm17397) Units=km Length=0.00982385 bus1=udm17397.1.2 bus2=p1ulv9896.1.2 switch=n enabled=y phases=2 Linecode=1P_OH_AL_2/0_Rucina_0_416_0_2_2

New Line.l(r:udm17396-udm17397) Units=km Length=0.0157475 bus1=udm17396.1.2 bus2=udm17397.1.2 switch=n enabled=y phases=2 Linecode=1P_OH_AL_2/0_Rucina_0_416_0_2_2

New Line.l(r:udm17396-udt4595lv) Units=km Length=0.0139779 bus1=udt4595lv.1.2 bus2=udm17396.1.2 switch=n enabled=y phases=2 Linecode=1P_OH_AL_2/0_Rucina_0_416_0_2_2

New Line.l(r:p1ulv9893-udm17399) Units=km Length=0.0117329 bus1=udm17399.1.2 bus2=p1ulv9893.1.2 switch=n enabled=y phases=2 Linecode=1P_OH_AL_2/0_Rucina_0_416_0_2_2

New Line.l(r:p1ulv9894-udm17400) Units=km Length=0.0101247 bus1=udm17400.1.2 bus2=p1ulv9894.1.2 switch=n enabled=y phases=2 Linecode=1P_OH_AL_2/0_Rucina_0_416_0_2_2

New Line.l(r:udm17399-udm17400) Units=km Length=0.00927491 bus1=udm17399.1.2 bus2=udm17400.1.2 switch=n enabled=y phases=2 Linecode=1P_OH_AL_2/0_Rucina_0_416_0_2_2

New Line.l(r:udm17399-udt4595lv) Units=km Length=0.0305569 bus1=udt4595lv.1.2 bus2=udm17399.1.2 switch=n enabled=y phases=2 Linecode=1P_OH_AL_4/0_Zuzara_0_416_0_2_2

New Line.l(r:p1ulv9872-udt4596lv) Units=km Length=0.009182180000000002 bus1=udt4596lv.1.2 bus2=p1ulv9872.1.2 switch=n enabled=y phases=2 Linecode=1P_OH_AL_2/0_Rucina_0_416_0_2_2

New Line.l(r:p1ulv9876-udt4597lv) Units=km Length=0.0139356 bus1=udt4597lv.1.2 bus2=p1ulv9876.1.2 switch=n enabled=y phases=2 Linecode=1P_UG_AL_1/0_Brenau_0_416_0_2_2

New Line.l(r:p1ulv9897-udt4597lv) Units=km Length=0.0121397 bus1=udt4597lv.1.2 bus2=p1ulv9897.1.2 switch=n enabled=y phases=2 Linecode=1P_UG_AL_1/0_Brenau_0_416_0_2_2

New Line.l(r:p1ulv9877-udm17405) Units=km Length=0.012742900000000001 bus1=udm17405.1.2 bus2=p1ulv9877.1.2 switch=n enabled=y phases=2 Linecode=1P_UG_AL_1/0_Brenau_0_416_0_2_2

New Line.l(r:p1ulv9898-udm17405) Units=km Length=0.0176873 bus1=udm17405.1.2 bus2=p1ulv9898.1.2 switch=n enabled=y phases=2 Linecode=1P_UG_AL_1/0_Brenau_0_416_0_2_2

New Line.l(r:p1ulv9878-udm17406) Units=km Length=0.010197 bus1=udm17406.1.2 bus2=p1ulv9878.1.2 switch=n enabled=y phases=2 Linecode=1P_UG_AL_1/0_Brenau_0_416_0_2_2

New Line.l(r:p1ulv9899-udm17410) Units=km Length=0.0156839 bus1=udm17410.1.2 bus2=p1ulv9899.1.2 switch=n enabled=y phases=2 Linecode=1P_UG_AL_1/0_Brenau_0_416_0_2_2

New Line.l(r:udm17406-udm17410) Units=km Length=0.0153949 bus1=udm17406.1.2 bus2=udm17410.1.2 switch=n enabled=y phases=2 Linecode=1P_UG_AL_1/0_Brenau_0_416_0_2_2

New Line.l(r:udm17405-udm17406) Units=km Length=0.025748 bus1=udm17405.1.2 bus2=udm17406.1.2 switch=n enabled=y phases=2 Linecode=1P_UG_AL_1/0_Brenau_0_416_0_2_2

New Line.l(r:udm17405-udt4597lv) Units=km Length=0.00934193 bus1=udt4597lv.1.2 bus2=udm17405.1.2 switch=n enabled=y phases=2 Linecode=1P_UG_AL_4/0_Sweetbriar_0_416_0_2_2

New Line.l(r:p1ulv9895-udm17407) Units=km Length=0.013971 bus1=udm17407.1.2 bus2=p1ulv9895.1.2 switch=n enabled=y phases=2 Linecode=1P_UG_AL_1/0_Brenau_0_416_0_2_2

New Line.l(r:p1ulv9875-udm17403) Units=km Length=0.016515 bus1=udm17403.1.2 bus2=p1ulv9875.1.2 switch=n enabled=y phases=2 Linecode=1P_UG_AL_1/0_Brenau_0_416_0_2_2

New Line.l(r:udm17403-udm17407) Units=km Length=0.00935156 bus1=udm17407.1.2 bus2=udm17403.1.2 switch=n enabled=y phases=2 Linecode=1P_UG_AL_1/0_Brenau_0_416_0_2_2

New Line.l(r:udm17407-udt4597lv) Units=km Length=0.00935156 bus1=udt4597lv.1.2 bus2=udm17407.1.2 switch=n enabled=y phases=2 Linecode=1P_UG_AL_1/0_Brenau_0_416_0_2_2

New Line.l(r:p1ulv9903-udt4598lv) Units=km Length=0.00545708 bus1=udt4598lv.1.2 bus2=p1ulv9903.1.2 switch=n enabled=y phases=2 Linecode=1P_UG_AL_1/0_Brenau_0_416_0_2_2

New Line.l(r:p1ulv9879-udm17411) Units=km Length=0.0126779 bus1=udm17411.1.2 bus2=p1ulv9879.1.2 switch=n enabled=y phases=2 Linecode=1P_UG_AL_1/0_Brenau_0_416_0_2_2

New Line.l(r:p1ulv9881-udm17412) Units=km Length=0.0153992 bus1=udm17412.1.2 bus2=p1ulv9881.1.2 switch=n enabled=y phases=2 Linecode=1P_UG_AL_1/0_Brenau_0_416_0_2_2

New Line.l(r:p1ulv9904-udm17412) Units=km Length=0.00861423 bus1=udm17412.1.2 bus2=p1ulv9904.1.2 switch=n enabled=y phases=2 Linecode=1P_UG_AL_1/0_Brenau_0_416_0_2_2
