New Line.l(r:p1ulv1404-udt713lv) Units=km Length=0.0140554 bus1=udt713lv.1.2 bus2=p1ulv1404.1.2 switch=n enabled=y phases=2 Linecode=1P_OH_AL_2/0_Rucina_0_416_0_2_2

New Line.l(r:p1ulv4346-udm7762) Units=km Length=0.0219753 bus1=udm7762.1.2 bus2=p1ulv4346.1.2 switch=n enabled=y phases=2 Linecode=1P_UG_AL_1/0_Brenau_0_416_0_2_2

New Line.l(r:udm7762-udt1938lv) Units=km Length=0.00964196 bus1=udt1938lv.1.2 bus2=udm7762.1.2 switch=n enabled=y phases=2 Linecode=1P_UG_AL_1/0_Brenau_0_416_0_2_2

New Line.l(r:p1ulv29593-udm7763) Units=km Length=0.0187803 bus1=udm7763.1.2 bus2=p1ulv29593.1.2 switch=n enabled=y phases=2 Linecode=1P_UG_AL_4/0_Sweetbriar_0_416_0_2_2

New Line.l(r:udm7763-udt1938lv) Units=km Length=0.00965194 bus1=udt1938lv.1.2 bus2=udm7763.1.2 switch=n enabled=y phases=2 Linecode=1P_UG_AL_4/0_Sweetbriar_0_416_0_2_2

New Line.l(r:p1ulv4357-udt1949lv) Units=km Length=0.0150221 bus1=udt1949lv.1.2 bus2=p1ulv4357.1.2 switch=n enabled=y phases=2 Linecode=1P_UG_AL_1/0_Brenau_0_416_0_2_2

New Line.l(r:p1ulv4367-udt1949lv) Units=km Length=0.0161765 bus1=udt1949lv.1.2 bus2=p1ulv4367.1.2 switch=n enabled=y phases=2 Linecode=1P_UG_AL_1/0_Brenau_0_416_0_2_2

New Line.l(r:p1ulv4365-udm7800) Units=km Length=0.016258100000000004 bus1=udm7800.1.2 bus2=p1ulv4365.1.2 switch=n enabled=y phases=2 Linecode=1P_UG_AL_1/0_Brenau_0_416_0_2_2

New Line.l(r:p1ulv29745-udm7803) Units=km Length=0.0135555 bus1=udm7803.1.2 bus2=p1ulv29745.1.2 switch=n enabled=y phases=2 Linecode=1P_UG_AL_1/0_Brenau_0_416_0_2_2

New Line.l(r:p1ulv31202-udm7803) Units=km Length=0.0159502 bus1=udm7803.1.2 bus2=p1ulv31202.1.2 switch=n enabled=y phases=2 Linecode=1P_UG_AL_2/0_Converse_0_416_0_2_2

New Line.l(r:udm7800-udm7803) Units=km Length=0.00956795 bus1=udm7800.1.2 bus2=udm7803.1.2 switch=n enabled=y phases=2 Linecode=1P_UG_AL_4/0_Sweetbriar_0_416_0_2_2

New Line.l(r:udm7800-udt1949lv) Units=km Length=0.009578360000000001 bus1=udt1949lv.1.2 bus2=udm7800.1.2 switch=n enabled=y phases=2 Linecode=1P_UG_AL_4/0_Sweetbriar_0_416_0_2_2

New Line.l(r:p1ulv47605-udm7805) Units=km Length=0.0101617 bus1=udm7805.1.2 bus2=p1ulv47605.1.2 switch=n enabled=y phases=2 Linecode=1P_UG_AL_1/0_Brenau_0_416_0_2_2

New Line.l(r:p1ulv28921-udm7802) Units=km Length=0.0108902 bus1=udm7802.1.2 bus2=p1ulv28921.1.2 switch=n enabled=y phases=2 Linecode=1P_UG_AL_1/0_Brenau_0_416_0_2_2

New Line.l(r:udm7802-udm7805) Units=km Length=0.00961518 bus1=udm7805.1.2 bus2=udm7802.1.2 switch=n enabled=y phases=2 Linecode=1P_UG_AL_1/0_Brenau_0_416_0_2_2

New Line.l(r:udm7805-udt1949lv) Units=km Length=0.050170200000000005 bus1=udt1949lv.1.2 bus2=udm7805.1.2 switch=n enabled=y phases=2 Linecode=1P_UG_AL_2/0_Converse_0_416_0_2_2

New Line.l(r:p1ulv4361-udm7812) Units=km Length=0.017342700000000003 bus1=udm7812.1.2 bus2=p1ulv4361.1.2 switch=n enabled=y phases=2 Linecode=1P_UG_AL_2/0_Converse_0_416_0_2_2

New Line.l(r:p1ulv35386-udm7812) Units=km Length=0.0145535 bus1=udm7812.1.2 bus2=p1ulv35386.1.2 switch=n enabled=y phases=2 Linecode=1P_UG_AL_1/0_Brenau_0_416_0_2_2

New Line.l(r:udm7812-udt1951lv) Units=km Length=0.00966747 bus1=udt1951lv.1.2 bus2=udm7812.1.2 switch=n enabled=y phases=2 Linecode=1P_UG_AL_4/0_Sweetbriar_0_416_0_2_2

New Line.l(r:p1ulv4374-udm7813) Units=km Length=0.0142016 bus1=udm7813.1.2 bus2=p1ulv4374.1.2 switch=n enabled=y phases=2 Linecode=1P_UG_AL_1/0_Brenau_0_416_0_2_2

New Line.l(r:p1ulv4359-udm7811) Units=km Length=0.01538 bus1=udm7811.1.2 bus2=p1ulv4359.1.2 switch=n enabled=y phases=2 Linecode=1P_UG_AL_1/0_Brenau_0_416_0_2_2

New Line.l(r:udm7811-udm7813) Units=km Length=0.00967746 bus1=udm7813.1.2 bus2=udm7811.1.2 switch=n enabled=y phases=2 Linecode=1P_UG_AL_1/0_Brenau_0_416_0_2_2

New Line.l(r:udm7813-udt1951lv) Units=km Length=0.00966787 bus1=udt1951lv.1.2 bus2=udm7813.1.2 switch=n enabled=y phases=2 Linecode=1P_UG_AL_2/0_Converse_0_416_0_2_2

New Line.l(r:p1ulv4360-udt1952lv) Units=km Length=0.015284700000000002 bus1=udt1952lv.1.2 bus2=p1ulv4360.1.2 switch=n enabled=y phases=2 Linecode=1P_UG_AL_2/0_Converse_0_416_0_2_2

New Line.l(r:p1ulv4369-udt1957lv) Units=km Length=0.00939515 bus1=udt1957lv.1.2 bus2=p1ulv4369.1.2 switch=n enabled=y phases=2 Linecode=1P_UG_AL_1/0_Brenau_0_416_0_2_2

New Line.l(r:p1ulv35609-udt1957lv) Units=km Length=0.0102393 bus1=udt1957lv.1.2 bus2=p1ulv35609.1.2 switch=n enabled=y phases=2 Linecode=1P_UG_AL_1/0_Brenau_0_416_0_2_2

New Line.l(r:p1ulv4375-udm7836) Units=km Length=0.0163654 bus1=udm7836.1.2 bus2=p1ulv4375.1.2 switch=n enabled=y phases=2 Linecode=1P_UG_AL_1/0_Brenau_0_416_0_2_2

New Line.l(r:p1ulv28170-udm7836) Units=km Length=0.0153877 bus1=udm7836.1.2 bus2=p1ulv28170.1.2 switch=n enabled=y phases=2 Linecode=1P_UG_AL_1/0_Brenau_0_416_0_2_2

New Line.l(r:p1ulv26368-udm7837) Units=km Length=0.0151008 bus1=udm7837.1.2 bus2=p1ulv26368.1.2 switch=n enabled=y phases=2 Linecode=1P_UG_AL_1/0_Brenau_0_416_0_2_2

New Line.l(r:udm7836-udm7837) Units=km Length=0.00966787 bus1=udm7836.1.2 bus2=udm7837.1.2 switch=n enabled=y phases=2 Linecode=1P_UG_AL_1/0_Brenau_0_416_0_2_2

New Line.l(r:udm7836-udt1961lv) Units=km Length=0.0290128 bus1=udt1961lv.1.2 bus2=udm7836.1.2 switch=n enabled=y phases=2 Linecode=1P_UG_AL_4/0_Sweetbriar_0_416_0_2_2

New Line.l(r:p1ulv50632-udm7840) Units=km Length=0.00544489 bus1=udm7840.1.2 bus2=p1ulv50632.1.2 switch=n enabled=y phases=2 Linecode=1P_UG_AL_1/0_Brenau_0_416_0_2_2

New Line.l(r:p1ulv43998-udm7839) Units=km Length=0.00890336 bus1=udm7839.1.2 bus2=p1ulv43998.1.2 switch=n enabled=y phases=2 Linecode=1P_UG_AL_1/0_Brenau_0_416_0_2_2

New Line.l(r:udm7839-udm7840) Units=km Length=0.00926286 bus1=udm7840.1.2 bus2=udm7839.1.2 switch=n enabled=y phases=2 Linecode=1P_UG_AL_1/0_Brenau_0_416_0_2_2

New Line.l(r:udm7840-udt1961lv) Units=km Length=0.0572161 bus1=udt1961lv.1.2 bus2=udm7840.1.2 switch=n enabled=y phases=2 Linecode=1P_UG_AL_1/0_Brenau_0_416_0_2_2

New Line.l(r:p1ulv11208-udt5130lv) Units=km Length=0.00984762 bus1=udt5130lv.1.2 bus2=p1ulv11208.1.2 switch=n enabled=y phases=2 Linecode=1P_UG_AL_1/0_Brenau_0_416_0_2_2

New Line.l(r:p1ulv32977-udm19279) Units=km Length=0.00917377 bus1=udm19279.1.2 bus2=p1ulv32977.1.2 switch=n enabled=y phases=2 Linecode=1P_UG_AL_1/0_Brenau_0_416_0_2_2

New Line.l(r:udm19279-udt5130lv) Units=km Length=0.0096651 bus1=udt5130lv.1.2 bus2=udm19279.1.2 switch=n enabled=y phases=2 Linecode=1P_UG_AL_1/0_Brenau_0_416_0_2_2

New Line.l(r:p1ulv11209-udt5131lv) Units=km Length=0.0105659 bus1=udt5131lv.1.2 bus2=p1ulv11209.1.2 switch=n enabled=y phases=2 Linecode=1P_UG_AL_1/0_Brenau_0_416_0_2_2

New Line.l(r:p1ulv30126-udt5131lv) Units=km Length=0.0120863 bus1=udt5131lv.1.2 bus2=p1ulv30126.1.2 switch=n enabled=y phases=2 Linecode=1P_UG_AL_1/0_Brenau_0_416_0_2_2

New Line.l(r:p1ulv11831-udm19284) Units=km Length=0.00506883 bus1=udm19284.1.2 bus2=p1ulv11831.1.2 switch=n enabled=y phases=2 Linecode=1P_UG_AL_1/0_Brenau_0_416_0_2_2

New Line.l(r:p1ulv11213-udm19281) Units=km Length=0.0029789300000000003 bus1=udm19281.1.2 bus2=p1ulv11213.1.2 switch=n enabled=y phases=2 Linecode=1P_UG_AL_1/0_Brenau_0_416_0_2_2

New Line.l(r:udm19281-udm19284) Units=km Length=0.05132380000000001 bus1=udm19284.1.2 bus2=udm19281.1.2 switch=n enabled=y phases=2 Linecode=1P_UG_AL_1/0_Brenau_0_416_0_2_2

New Line.l(r:udm19284-udt5131lv) Units=km Length=0.060655 bus1=udt5131lv.1.2 bus2=udm19284.1.2 switch=n enabled=y phases=2 Linecode=1P_UG_AL_1/0_Brenau_0_416_0_2_2

New Line.l(r:p1ulv29397-udm19286) Units=km Length=0.00940109 bus1=udm19286.1.2 bus2=p1ulv29397.1.2 switch=n enabled=y phases=2 Linecode=1P_UG_AL_1/0_Brenau_0_416_0_2_2

New Line.l(r:p1ulv38167-udm19286) Units=km Length=0.00920515 bus1=udm19286.1.2 bus2=p1ulv38167.1.2 switch=n enabled=y phases=2 Linecode=1P_UG_AL_1/0_Brenau_0_416_0_2_2

New Line.l(r:p1ulv11218-udm19283) Units=km Length=0.0101861 bus1=udm19283.1.2 bus2=p1ulv11218.1.2 switch=n enabled=y phases=2 Linecode=1P_UG_AL_1/0_Brenau_0_416_0_2_2

New Line.l(r:p1ulv27954-udm19283) Units=km Length=0.00882479 bus1=udm19283.1.2 bus2=p1ulv27954.1.2 switch=n enabled=y phases=2 Linecode=1P_UG_AL_1/0_Brenau_0_416_0_2_2

New Line.l(r:p1ulv11217-udm19282) Units=km Length=0.00939826 bus1=udm19282.1.2 bus2=p1ulv11217.1.2 switch=n enabled=y phases=2 Linecode=1P_UG_AL_1/0_Brenau_0_416_0_2_2

New Line.l(r:udm19282-udm19283) Units=km Length=0.0096651 bus1=udm19283.1.2 bus2=udm19282.1.2 switch=n enabled=y phases=2 Linecode=1P_UG_AL_1/0_Brenau_0_416_0_2_2

New Line.l(r:udm19283-udm19286) Units=km Length=0.0193202 bus1=udm19286.1.2 bus2=udm19283.1.2 switch=n enabled=y phases=2 Linecode=1P_UG_AL_4/0_Sweetbriar_0_416_0_2_2

New Line.l(r:udm19286-udt5131lv) Units=km Length=0.0096651 bus1=udt5131lv.1.2 bus2=udm19286.1.2 switch=n enabled=y phases=2 Linecode=1P_UG_AL_4/0_Sweetbriar_0_416_0_2_2

New Line.l(r:p1ulv11225-udt5132lv) Units=km Length=0.0177773 bus1=udt5132lv.1.2 bus2=p1ulv11225.1.2 switch=n enabled=y phases=2 Linecode=1P_UG_AL_1/0_Brenau_0_416_0_2_2

New Line.l(r:p1ulv28924-udm19291) Units=km Length=0.0157118 bus1=udm19291.1.2 bus2=p1ulv28924.1.2 switch=n enabled=y phases=2 Linecode=1P_UG_AL_1/0_Brenau_0_416_0_2_2

New Line.l(r:p1ulv37152-udm19291) Units=km Length=0.0168559 bus1=udm19291.1.2 bus2=p1ulv37152.1.2 switch=n enabled=y phases=2 Linecode=1P_UG_AL_1/0_Brenau_0_416_0_2_2

New Line.l(r:udm19291-udt5132lv) Units=km Length=0.00950592 bus1=udt5132lv.1.2 bus2=udm19291.1.2 switch=n enabled=y phases=2 Linecode=1P_UG_AL_2/0_Converse_0_416_0_2_2

New Line.l(r:p1ulv38920-udm19293) Units=km Length=0.0166632 bus1=udm19293.1.2 bus2=p1ulv38920.1.2 switch=n enabled=y phases=2 Linecode=1P_UG_AL_1/0_Brenau_0_416_0_2_2

New Line.l(r:p1ulv11210-udm19289) Units=km Length=0.0173338 bus1=udm19289.1.2 bus2=p1ulv11210.1.2 switch=n enabled=y phases=2 Linecode=1P_UG_AL_1/0_Brenau_0_416_0_2_2

New Line.l(r:udm19289-udm19293) Units=km Length=0.00950592 bus1=udm19293.1.2 bus2=udm19289.1.2 switch=n enabled=y phases=2 Linecode=1P_UG_AL_1/0_Brenau_0_416_0_2_2

New Line.l(r:udm19293-udt5132lv) Units=km Length=0.009505350000000001 bus1=udt5132lv.1.2 bus2=udm19293.1.2 switch=n enabled=y phases=2 Linecode=1P_UG_AL_2/0_Converse_0_416_0_2_2

New Line.l(r:p1ulv11229-udt5133lv) Units=km Length=0.0177788 bus1=udt5133lv.1.2 bus2=p1ulv11229.1.2 switch=n enabled=y phases=2 Linecode=1P_UG_AL_1/0_Brenau_0_416_0_2_2

New Line.l(r:p1ulv11211-udm19294) Units=km Length=0.017580400000000003 bus1=udm19294.1.2 bus2=p1ulv11211.1.2 switch=n enabled=y phases=2 Linecode=1P_UG_AL_1/0_Brenau_0_416_0_2_2

New Line.l(r:p1ulv11212-udm19295) Units=km Length=0.0115393 bus1=udm19295.1.2 bus2=p1ulv11212.1.2 switch=n enabled=y phases=2 Linecode=1P_UG_AL_1/0_Brenau_0_416_0_2_2

New Line.l(r:p1ulv37806-udm19298) Units=km Length=0.00633199 bus1=udm19298.1.2 bus2=p1ulv37806.1.2 switch=n enabled=y phases=2 Linecode=1P_UG_AL_1/0_Brenau_0_416_0_2_2

New Line.l(r:udm19295-udm19298) Units=km Length=0.019993000000000004 bus1=udm19295.1.2 bus2=udm19298.1.2 switch=n enabled=y phases=2 Linecode=1P_UG_AL_1/0_Brenau_0_416_0_2_2

New Line.l(r:udm19294-udm19295) Units=km Length=0.0285815 bus1=udm19294.1.2 bus2=udm19295.1.2 switch=n enabled=y phases=2 Linecode=1P_UG_AL_1/0_Brenau_0_416_0_2_2

New Line.l(r:udm19294-udt5133lv) Units=km Length=0.0180842 bus1=udt5133lv.1.2 bus2=udm19294.1.2 switch=n enabled=y phases=2 Linecode=1P_UG_AL_4/0_Sweetbriar_0_416_0_2_2

New Line.l(r:p1ulv11227-udm19296) Units=km Length=0.018673500000000003 bus1=udm19296.1.2 bus2=p1ulv11227.1.2 switch=n enabled=y phases=2 Linecode=1P_UG_AL_1/0_Brenau_0_416_0_2_2

New Line.l(r:udm19296-udt5133lv) Units=km Length=0.0190113 bus1=udt5133lv.1.2 bus2=udm19296.1.2 switch=n enabled=y phases=2 Linecode=1P_UG_AL_1/0_Brenau_0_416_0_2_2

New Line.l(r:p1ulv46020-udt5134lv) Units=km Length=0.0166127 bus1=udt5134lv.1.2 bus2=p1ulv46020.1.2 switch=n enabled=y phases=2 Linecode=1P_UG_AL_1/0_Brenau_0_416_0_2_2

New Line.l(r:p1ulv11214-udm19299) Units=km Length=0.0141659 bus1=udm19299.1.2 bus2=p1ulv11214.1.2 switch=n enabled=y phases=2 Linecode=1P_UG_AL_1/0_Brenau_0_416_0_2_2

New Line.l(r:p1ulv40560-udm19302) Units=km Length=0.0211695 bus1=udm19302.1.2 bus2=p1ulv40560.1.2 switch=n enabled=y phases=2 Linecode=1P_UG_AL_1/0_Brenau_0_416_0_2_2

New Line.l(r:p1ulv50483-udm19302) Units=km Length=0.0150719 bus1=udm19302.1.2 bus2=p1ulv50483.1.2 switch=n enabled=y phases=2 Linecode=1P_UG_AL_4/0_Sweetbriar_0_416_0_2_2

New Line.l(r:udm19299-udm19302) Units=km Length=0.00976991 bus1=udm19299.1.2 bus2=udm19302.1.2 switch=n enabled=y phases=2 Linecode=1P_UG_AL_4/0_Sweetbriar_0_416_0_2_2

New Line.l(r:udm19299-udt5134lv) Units=km Length=0.00978036 bus1=udt5134lv.1.2 bus2=udm19299.1.2 switch=n enabled=y phases=2 Linecode=1P_UG_AL_4/0_Sweetbriar_0_416_0_2_2

New Line.l(r:p1ulv31415-udm19300) Units=km Length=0.0185138 bus1=udm19300.1.2 bus2=p1ulv31415.1.2 switch=n enabled=y phases=2 Linecode=1P_UG_AL_1/0_Brenau_0_416_0_2_2

New Line.l(r:p1ulv33209-udm19300) Units=km Length=0.0163033 bus1=udm19300.1.2 bus2=p1ulv33209.1.2 switch=n enabled=y phases=2 Linecode=1P_UG_AL_1/0_Brenau_0_416_0_2_2

New Line.l(r:udm19300-udt5134lv) Units=km Length=0.0293402 bus1=udt5134lv.1.2 bus2=udm19300.1.2 switch=n enabled=y phases=2 Linecode=1P_UG_AL_1/0_Brenau_0_416_0_2_2

New Line.l(r:p1ulv28173-udt5135lv) Units=km Length=0.0105528 bus1=udt5135lv.1.2 bus2=p1ulv28173.1.2 switch=n enabled=y phases=2 Linecode=1P_UG_AL_1/0_Brenau_0_416_0_2_2

New Line.l(r:p1ulv26733-udm19306) Units=km Length=0.0105 bus1=udm19306.1.2 bus2=p1ulv26733.1.2 switch=n enabled=y phases=2 Linecode=1P_UG_AL_4/0_Sweetbriar_0_416_0_2_2

New Line.l(r:udm19306-udt5135lv) Units=km Length=0.0194381 bus1=udt5135lv.1.2 bus2=udm19306.1.2 switch=n enabled=y phases=2 Linecode=1P_UG_AL_4/0_Sweetbriar_0_416_0_2_2

New Line.l(r:p1ulv32963-udm19308) Units=km Length=0.0132947 bus1=udm19308.1.2 bus2=p1ulv32963.1.2 switch=n enabled=y phases=2 Linecode=1P_UG_AL_1/0_Brenau_0_416_0_2_2

New Line.l(r:p1ulv11215-udm19305) Units=km Length=0.00484298 bus1=udm19305.1.2 bus2=p1ulv11215.1.2 switch=n enabled=y phases=2 Linecode=1P_UG_AL_1/0_Brenau_0_416_0_2_2

New Line.l(r:udm19305-udm19308) Units=km Length=0.029412 bus1=udm19308.1.2 bus2=udm19305.1.2 switch=n enabled=y phases=2 Linecode=1P_UG_AL_1/0_Brenau_0_416_0_2_2

New Line.l(r:udm19308-udt5135lv) Units=km Length=0.00972375 bus1=udt5135lv.1.2 bus2=udm19308.1.2 switch=n enabled=y phases=2 Linecode=1P_UG_AL_1/0_Brenau_0_416_0_2_2

New Line.l(r:p1ulv11216-udm19309) Units=km Length=0.011991 bus1=udm19309.1.2 bus2=p1ulv11216.1.2 switch=n enabled=y phases=2 Linecode=1P_UG_AL_4/0_Sweetbriar_0_416_0_2_2

New Line.l(r:udm19309-udt5136lv) Units=km Length=0.0388914 bus1=udt5136lv.1.2 bus2=udm19309.1.2 switch=n enabled=y phases=2 Linecode=1P_UG_AL_4/0_Sweetbriar_0_416_0_2_2

New Line.l(r:p1ulv26671-udm19310) Units=km Length=0.0120632 bus1=udm19310.1.2 bus2=p1ulv26671.1.2 switch=n enabled=y phases=2 Linecode=1P_UG_AL_1/0_Brenau_0_416_0_2_2

New Line.l(r:p1ulv27034-udm19310) Units=km Length=0.00388147 bus1=udm19310.1.2 bus2=p1ulv27034.1.2 switch=n enabled=y phases=2 Linecode=1P_UG_AL_1/0_Brenau_0_416_0_2_2

New Line.l(r:udm19310-udt5136lv) Units=km Length=0.029936 bus1=udt5136lv.1.2 bus2=udm19310.1.2 switch=n enabled=y phases=2 Linecode=1P_UG_AL_1/0_Brenau_0_416_0_2_2

New Line.l(r:p1ulv11230-udt5137lv) Units=km Length=0.0116417 bus1=udt5137lv.1.2 bus2=p1ulv11230.1.2 switch=n enabled=y phases=2 Linecode=1P_UG_AL_1/0_Brenau_0_416_0_2_2

New Line.l(r:p1ulv11219-udm19312) Units=km Length=0.0123147 bus1=udm19312.1.2 bus2=p1ulv11219.1.2 switch=n enabled=y phases=2 Linecode=1P_UG_AL_1/0_Brenau_0_416_0_2_2

New Line.l(r:p1ulv11231-udm19312) Units=km Length=0.0137973 bus1=udm19312.1.2 bus2=p1ulv11231.1.2 switch=n enabled=y phases=2 Linecode=1P_UG_AL_1/0_Brenau_0_416_0_2_2

New Line.l(r:p1ulv11232-udm19316) Units=km Length=0.0176489 bus1=udm19316.1.2 bus2=p1ulv11232.1.2 switch=n enabled=y phases=2 Linecode=1P_UG_AL_1/0_Brenau_0_416_0_2_2

New Line.l(r:udm19312-udm19316) Units=km Length=0.00972403 bus1=udm19312.1.2 bus2=udm19316.1.2 switch=n enabled=y phases=2 Linecode=1P_UG_AL_1/0_Brenau_0_416_0_2_2

New Line.l(r:udm19312-udt5137lv) Units=km Length=0.0194378 bus1=udt5137lv.1.2 bus2=udm19312.1.2 switch=n enabled=y phases=2 Linecode=1P_UG_AL_2/0_Converse_0_416_0_2_2

New Line.l(r:p1ulv11222-udm19313) Units=km Length=0.012490000000000001 bus1=udm19313.1.2 bus2=p1ulv11222.1.2 switch=n enabled=y phases=2 Linecode=1P_UG_AL_1/0_Brenau_0_416_0_2_2

New Line.l(r:p1ulv36794-udm19313) Units=km Length=0.00839272 bus1=udm19313.1.2 bus2=p1ulv36794.1.2 switch=n enabled=y phases=2 Linecode=1P_UG_AL_1/0_Brenau_0_416_0_2_2

New Line.l(r:p1ulv31753-udm19317) Units=km Length=0.007806030000000001 bus1=udm19317.1.2 bus2=p1ulv31753.1.2 switch=n enabled=y phases=2 Linecode=1P_UG_AL_4/0_Sweetbriar_0_416_0_2_2

New Line.l(r:udm19313-udm19317) Units=km Length=0.0194381 bus1=udm19313.1.2 bus2=udm19317.1.2 switch=n enabled=y phases=2 Linecode=1P_UG_AL_4/0_Sweetbriar_0_416_0_2_2

New Line.l(r:udm19313-udt5137lv) Units=km Length=0.00972403 bus1=udt5137lv.1.2 bus2=udm19313.1.2 switch=n enabled=y phases=2 Linecode=1P_UG_AL_4/0_Sweetbriar_0_416_0_2_2

New Line.l(r:p1ulv38547-udt5138lv) Units=km Length=0.0124963 bus1=udt5138lv.1.2 bus2=p1ulv38547.1.2 switch=n enabled=y phases=2 Linecode=1P_UG_AL_1/0_Brenau_0_416_0_2_2

New Line.l(r:p1ulv11220-udm19319) Units=km Length=0.0120584 bus1=udm19319.1.2 bus2=p1ulv11220.1.2 switch=n enabled=y phases=2 Linecode=1P_UG_AL_1/0_Brenau_0_416_0_2_2

New Line.l(r:p1ulv11223-udm19319) Units=km Length=0.00767053 bus1=udm19319.1.2 bus2=p1ulv11223.1.2 switch=n enabled=y phases=2 Linecode=1P_UG_AL_1/0_Brenau_0_416_0_2_2

New Line.l(r:p1ulv32329-udm19323) Units=km Length=0.010832400000000002 bus1=udm19323.1.2 bus2=p1ulv32329.1.2 switch=n enabled=y phases=2 Linecode=1P_UG_AL_1/0_Brenau_0_416_0_2_2

New Line.l(r:udm19319-udm19323) Units=km Length=0.009655110000000001 bus1=udm19319.1.2 bus2=udm19323.1.2 switch=n enabled=y phases=2 Linecode=1P_UG_AL_1/0_Brenau_0_416_0_2_2

New Line.l(r:udm19319-udt5138lv) Units=km Length=0.00966566 bus1=udt5138lv.1.2 bus2=udm19319.1.2 switch=n enabled=y phases=2 Linecode=1P_UG_AL_4/0_Sweetbriar_0_416_0_2_2

New Line.l(r:p1ulv11233-udm19321) Units=km Length=0.0075305 bus1=udm19321.1.2 bus2=p1ulv11233.1.2 switch=n enabled=y phases=2 Linecode=1P_UG_AL_1/0_Brenau_0_416_0_2_2

New Line.l(r:p1ulv26162-udm19322) Units=km Length=0.013894700000000001 bus1=udm19322.1.2 bus2=p1ulv26162.1.2 switch=n enabled=y phases=2 Linecode=1P_UG_AL_1/0_Brenau_0_416_0_2_2

New Line.l(r:p1ulv33765-udm19322) Units=km Length=0.0111136 bus1=udm19322.1.2 bus2=p1ulv33765.1.2 switch=n enabled=y phases=2 Linecode=1P_UG_AL_1/0_Brenau_0_416_0_2_2

New Line.l(r:udm19321-udm19322) Units=km Length=0.0096651 bus1=udm19321.1.2 bus2=udm19322.1.2 switch=n enabled=y phases=2 Linecode=1P_UG_AL_1/0_Brenau_0_416_0_2_2

New Line.l(r:udm19321-udt5138lv) Units=km Length=0.0096651 bus1=udt5138lv.1.2 bus2=udm19321.1.2 switch=n enabled=y phases=2 Linecode=1P_UG_AL_2/0_Converse_0_416_0_2_2

New Line.l(r:p1ulv11221-udt5139lv) Units=km Length=0.0132503 bus1=udt5139lv.1.2 bus2=p1ulv11221.1.2 switch=n enabled=y phases=2 Linecode=1P_UG_AL_4/0_Sweetbriar_0_416_0_2_2

New Line.l(r:p1ulv11224-udt5140lv) Units=km Length=0.0118888 bus1=udt5140lv.1.2 bus2=p1ulv11224.1.2 switch=n enabled=y phases=2 Linecode=1P_UG_AL_4/0_Sweetbriar_0_416_0_2_2

New Line.l(r:p1ulv11228-udt5141lv) Units=km Length=0.0119588 bus1=udt5141lv.1.2 bus2=p1ulv11228.1.2 switch=n enabled=y phases=2 Linecode=1P_UG_AL_4/0_Sweetbriar_0_416_0_2_2

New Line.l(r:p1ulv27891-udm19330) Units=km Length=0.00442404 bus1=udm19330.1.2 bus2=p1ulv27891.1.2 switch=n enabled=y phases=2 Linecode=1P_UG_AL_2/0_Converse_0_416_0_2_2

New Line.l(r:p1ulv11235-udm19329) Units=km Length=0.0138914 bus1=udm19329.1.2 bus2=p1ulv11235.1.2 switch=n enabled=y phases=2 Linecode=1P_UG_AL_1/0_Brenau_0_416_0_2_2

New Line.l(r:udm19329-udm19330) Units=km Length=0.00905382 bus1=udm19330.1.2 bus2=udm19329.1.2 switch=n enabled=y phases=2 Linecode=1P_UG_AL_1/0_Brenau_0_416_0_2_2

New Line.l(r:udm19330-udt5142lv) Units=km Length=0.0181087 bus1=udt5142lv.1.2 bus2=udm19330.1.2 switch=n enabled=y phases=2 Linecode=1P_UG_AL_4/0_Sweetbriar_0_416_0_2_2

New Line.l(r:p1ulv36875-udm19331) Units=km Length=0.0436479 bus1=udm19331.1.2 bus2=p1ulv36875.1.2 switch=n enabled=y phases=2 Linecode=1P_UG_AL_1/0_Brenau_0_416_0_2_2

New Line.l(r:udm19331-udt5142lv) Units=km Length=0.00905382 bus1=udt5142lv.1.2 bus2=udm19331.1.2 switch=n enabled=y phases=2 Linecode=1P_UG_AL_1/0_Brenau_0_416_0_2_2

New Line.l(r:p1ulv38317-udt5146lv) Units=km Length=0.01226 bus1=udt5146lv.1.2 bus2=p1ulv38317.1.2 switch=n enabled=y phases=2 Linecode=1P_UG_AL_1/0_Brenau_0_416_0_2_2

New Line.l(r:p1ulv42483-udm19351) Units=km Length=0.0168964 bus1=udm19351.1.2 bus2=p1ulv42483.1.2 switch=n enabled=y phases=2 Linecode=1P_UG_AL_1/0_Brenau_0_416_0_2_2

New Line.l(r:p1ulv11239-udm19349) Units=km Length=0.0175739 bus1=udm19349.1.2 bus2=p1ulv11239.1.2 switch=n enabled=y phases=2 Linecode=1P_UG_AL_1/0_Brenau_0_416_0_2_2

New Line.l(r:udm19349-udm19351) Units=km Length=0.0192633 bus1=udm19351.1.2 bus2=udm19349.1.2 switch=n enabled=y phases=2 Linecode=1P_UG_AL_1/0_Brenau_0_416_0_2_2

New Line.l(r:udm19351-udt5146lv) Units=km Length=0.00963164 bus1=udt5146lv.1.2 bus2=udm19351.1.2 switch=n enabled=y phases=2 Linecode=1P_UG_AL_2/0_Converse_0_416_0_2_2

New Line.l(r:p1ulv44318-udm19352) Units=km Length=0.017343600000000004 bus1=udm19352.1.2 bus2=p1ulv44318.1.2 switch=n enabled=y phases=2 Linecode=1P_UG_AL_1/0_Brenau_0_416_0_2_2

New Line.l(r:p1ulv47534-udm19352) Units=km Length=0.015361900000000001 bus1=udm19352.1.2 bus2=p1ulv47534.1.2 switch=n enabled=y phases=2 Linecode=1P_UG_AL_1/0_Brenau_0_416_0_2_2

New Line.l(r:udm19352-udt5146lv) Units=km Length=0.00963245 bus1=udt5146lv.1.2 bus2=udm19352.1.2 switch=n enabled=y phases=2 Linecode=1P_UG_AL_2/0_Converse_0_416_0_2_2

New Line.l(r:p1ulv11241-udt5147lv) Units=km Length=0.00932755 bus1=udt5147lv.1.2 bus2=p1ulv11241.1.2 switch=n enabled=y phases=2 Linecode=1P_UG_AL_4/0_Sweetbriar_0_416_0_2_2

New Line.l(r:p1ulv27889-udm19355) Units=km Length=0.0129477 bus1=udm19355.1.2 bus2=p1ulv27889.1.2 switch=n enabled=y phases=2 Linecode=1P_UG_AL_1/0_Brenau_0_416_0_2_2

New Line.l(r:udm19355-udt5147lv) Units=km Length=0.00997016 bus1=udt5147lv.1.2 bus2=udm19355.1.2 switch=n enabled=y phases=2 Linecode=1P_UG_AL_1/0_Brenau_0_416_0_2_2

New Line.l(r:p1ulv33181-udm19356) Units=km Length=0.016059300000000002 bus1=udm19356.1.2 bus2=p1ulv33181.1.2 switch=n enabled=y phases=2 Linecode=1P_UG_AL_1/0_Brenau_0_416_0_2_2

New Line.l(r:udm19356-udt5147lv) Units=km Length=0.00997016 bus1=udt5147lv.1.2 bus2=udm19356.1.2 switch=n enabled=y phases=2 Linecode=1P_UG_AL_1/0_Brenau_0_416_0_2_2

New Line.l(r:p1ulv11242-udt5148lv) Units=km Length=0.019642 bus1=udt5148lv.1.2 bus2=p1ulv11242.1.2 switch=n enabled=y phases=2 Linecode=1P_UG_AL_1/0_Brenau_0_416_0_2_2

New Line.l(r:p1ulv11259-udm19358) Units=km Length=0.023669100000000002 bus1=udm19358.1.2 bus2=p1ulv11259.1.2 switch=n enabled=y phases=2 Linecode=1P_UG_AL_1/0_Brenau_0_416_0_2_2

New Line.l(r:udm19358-udt5148lv) Units=km Length=0.0275002 bus1=udt5148lv.1.2 bus2=udm19358.1.2 switch=n enabled=y phases=2 Linecode=1P_UG_AL_1/0_Brenau_0_416_0_2_2

New Line.l(r:p1ulv42872-udm19359) Units=km Length=0.0186293 bus1=udm19359.1.2 bus2=p1ulv42872.1.2 switch=n enabled=y phases=2 Linecode=1P_UG_AL_1/0_Brenau_0_416_0_2_2

New Line.l(r:udm19359-udt5148lv) Units=km Length=0.018343 bus1=udt5148lv.1.2 bus2=udm19359.1.2 switch=n enabled=y phases=2 Linecode=1P_UG_AL_1/0_Brenau_0_416_0_2_2

New Line.l(r:p1ulv26299-udm19377) Units=km Length=0.0133367 bus1=udm19377.1.2 bus2=p1ulv26299.1.2 switch=n enabled=y phases=2 Linecode=1P_UG_AL_1/0_Brenau_0_416_0_2_2

New Line.l(r:p1ulv29526-udm19378) Units=km Length=0.0118818 bus1=udm19378.1.2 bus2=p1ulv29526.1.2 switch=n enabled=y phases=2 Linecode=1P_UG_AL_1/0_Brenau_0_416_0_2_2

New Line.l(r:udm19377-udm19378) Units=km Length=0.00997016 bus1=udm19377.1.2 bus2=udm19378.1.2 switch=n enabled=y phases=2 Linecode=1P_UG_AL_1/0_Brenau_0_416_0_2_2

New Line.l(r:udm19377-udt5153lv) Units=km Length=0.0199303 bus1=udt5153lv.1.2 bus2=udm19377.1.2 switch=n enabled=y phases=2 Linecode=1P_UG_AL_2/0_Converse_0_416_0_2_2

New Line.l(r:p1ulv32768-udm19379) Units=km Length=0.0134251 bus1=udm19379.1.2 bus2=p1ulv32768.1.2 switch=n enabled=y phases=2 Linecode=1P_UG_AL_1/0_Brenau_0_416_0_2_2

New Line.l(r:p1ulv37945-udm19379) Units=km Length=0.0139995 bus1=udm19379.1.2 bus2=p1ulv37945.1.2 switch=n enabled=y phases=2 Linecode=1P_UG_AL_1/0_Brenau_0_416_0_2_2

New Line.l(r:p1ulv11249-udm19376) Units=km Length=0.00953692 bus1=udm19376.1.2 bus2=p1ulv11249.1.2 switch=n enabled=y phases=2 Linecode=1P_UG_AL_4/0_Sweetbriar_0_416_0_2_2

New Line.l(r:udm19376-udm19379) Units=km Length=0.00997016 bus1=udm19379.1.2 bus2=udm19376.1.2 switch=n enabled=y phases=2 Linecode=1P_UG_AL_4/0_Sweetbriar_0_416_0_2_2

New Line.l(r:udm19379-udt5153lv) Units=km Length=0.00997016 bus1=udt5153lv.1.2 bus2=udm19379.1.2 switch=n enabled=y phases=2 Linecode=1P_UG_AL_4/0_Sweetbriar_0_416_0_2_2

New Line.l(r:p1ulv44078-udt5154lv) Units=km Length=0.0120401 bus1=udt5154lv.1.2 bus2=p1ulv44078.1.2 switch=n enabled=y phases=2 Linecode=1P_UG_AL_1/0_Brenau_0_416_0_2_2

New Line.l(r:p1ulv11250-udm19381) Units=km Length=0.0150036 bus1=udm19381.1.2 bus2=p1ulv11250.1.2 switch=n enabled=y phases=2 Linecode=1P_UG_AL_1/0_Brenau_0_416_0_2_2

New Line.l(r:udm19381-udt5154lv) Units=km Length=0.00976947 bus1=udt5154lv.1.2 bus2=udm19381.1.2 switch=n enabled=y phases=2 Linecode=1P_UG_AL_1/0_Brenau_0_416_0_2_2

New Line.l(r:p1ulv36304-udm19382) Units=km Length=0.00992462 bus1=udm19382.1.2 bus2=p1ulv36304.1.2 switch=n enabled=y phases=2 Linecode=1P_UG_AL_4/0_Sweetbriar_0_416_0_2_2

New Line.l(r:udm19382-udt5154lv) Units=km Length=0.00976903 bus1=udt5154lv.1.2 bus2=udm19382.1.2 switch=n enabled=y phases=2 Linecode=1P_UG_AL_4/0_Sweetbriar_0_416_0_2_2

New Line.l(r:p1ulv11251-udt5155lv) Units=km Length=0.0128237 bus1=udt5155lv.1.2 bus2=p1ulv11251.1.2 switch=n enabled=y phases=2 Linecode=1P_UG_AL_4/0_Sweetbriar_0_416_0_2_2

New Line.l(r:p1ulv11258-udt5157lv) Units=km Length=0.0157931 bus1=udt5157lv.1.2 bus2=p1ulv11258.1.2 switch=n enabled=y phases=2 Linecode=1P_OH_AL_2/0_Rucina_0_416_0_2_2

New Line.l(r:p1ulv11254-udm19386) Units=km Length=0.016010000000000003 bus1=udm19386.1.2 bus2=p1ulv11254.1.2 switch=n enabled=y phases=2 Linecode=1P_OH_AL_2/0_Rucina_0_416_0_2_2

New Line.l(r:p1ulv11256-udm19386) Units=km Length=0.0391184 bus1=udm19386.1.2 bus2=p1ulv11256.1.2 switch=n enabled=y phases=2 Linecode=1P_OH_AL_4/0_Zuzara_0_416_0_2_2

New Line.l(r:udm19386-udt5157lv) Units=km Length=0.0196081 bus1=udt5157lv.1.2 bus2=udm19386.1.2 switch=n enabled=y phases=2 Linecode=1P_OH_AL_2/0_Rucina_0_416_0_2_2

New Line.l(r:p1ulv11257-udm19388) Units=km Length=0.0185435 bus1=udm19388.1.2 bus2=p1ulv11257.1.2 switch=n enabled=y phases=2 Linecode=1P_OH_AL_2/0_Rucina_0_416_0_2_2

New Line.l(r:udm19388-udt5157lv) Units=km Length=0.0196181 bus1=udt5157lv.1.2 bus2=udm19388.1.2 switch=n enabled=y phases=2 Linecode=1P_OH_AL_2/0_Rucina_0_416_0_2_2

New Line.l(r:p1ulv11255-udm19390) Units=km Length=0.0151106 bus1=udm19390.1.2 bus2=p1ulv11255.1.2 switch=n enabled=y phases=2 Linecode=1P_UG_AL_1/0_Brenau_0_416_0_2_2

New Line.l(r:udm19390-udt5158lv) Units=km Length=0.04761470000000001 bus1=udt5158lv.1.2 bus2=udm19390.1.2 switch=n enabled=y phases=2 Linecode=1P_UG_AL_1/0_Brenau_0_416_0_2_2

New Line.l(r:p1ulv38711-udm19391) Units=km Length=0.00933408 bus1=udm19391.1.2 bus2=p1ulv38711.1.2 switch=n enabled=y phases=2 Linecode=1P_UG_AL_1/0_Brenau_0_416_0_2_2

New Line.l(r:udm19391-udt5158lv) Units=km Length=0.00915594 bus1=udt5158lv.1.2 bus2=udm19391.1.2 switch=n enabled=y phases=2 Linecode=1P_UG_AL_1/0_Brenau_0_416_0_2_2

New Line.l(r:p1ulv39559-udt10841lv) Units=km Length=0.010373000000000002 bus1=udt10841lv.1.2 bus2=p1ulv39559.1.2 switch=n enabled=y phases=2 Linecode=1P_OH_AL_2/0_Rucina_0_416_0_2_2

New Line.l(r:p1ulv26035-udm36631) Units=km Length=0.0138126 bus1=udm36631.1.2 bus2=p1ulv26035.1.2 switch=n enabled=y phases=2 Linecode=1P_OH_AL_2/0_Rucina_0_416_0_2_2

New Line.l(r:udm36631-udt10841lv) Units=km Length=0.0164169 bus1=udt10841lv.1.2 bus2=udm36631.1.2 switch=n enabled=y phases=2 Linecode=1P_OH_AL_2/0_Rucina_0_416_0_2_2

New Line.l(r:p1ulv26100-udt10888lv) Units=km Length=0.018062600000000005 bus1=udt10888lv.1.2 bus2=p1ulv26100.1.2 switch=n enabled=y phases=2 Linecode=1P_UG_AL_1/0_Brenau_0_416_0_2_2

New Line.l(r:p1ulv29333-udm36822) Units=km Length=0.018694400000000003 bus1=udm36822.1.2 bus2=p1ulv29333.1.2 switch=n enabled=y phases=2 Linecode=1P_UG_AL_1/0_Brenau_0_416_0_2_2

New Line.l(r:udm36822-udt10888lv) Units=km Length=0.00916652 bus1=udt10888lv.1.2 bus2=udm36822.1.2 switch=n enabled=y phases=2 Linecode=1P_UG_AL_1/0_Brenau_0_416_0_2_2

New Line.l(r:p1ulv32966-udm36823) Units=km Length=0.0113431 bus1=udm36823.1.2 bus2=p1ulv32966.1.2 switch=n enabled=y phases=2 Linecode=1P_UG_AL_1/0_Brenau_0_416_0_2_2

New Line.l(r:udm36823-udt10888lv) Units=km Length=0.0465872 bus1=udt10888lv.1.2 bus2=udm36823.1.2 switch=n enabled=y phases=2 Linecode=1P_UG_AL_1/0_Brenau_0_416_0_2_2

New Line.l(r:p1ulv26890-udt11164lv) Units=km Length=0.05631950000000001 bus1=udt11164lv.1.2 bus2=p1ulv26890.1.2 switch=n enabled=y phases=2 Linecode=1P_OH_AL_4/0_Zuzara_0_416_0_2_2

New Line.l(r:p1ulv26513-udm37775) Units=km Length=0.0654826 bus1=udm37775.1.2 bus2=p1ulv26513.1.2 switch=n enabled=y phases=2 Linecode=1P_OH_AL_4/0_Zuzara_0_416_0_2_2

New Line.l(r:udm37775-udt11164lv) Units=km Length=0.0191807 bus1=udt11164lv.1.2 bus2=udm37775.1.2 switch=n enabled=y phases=2 Linecode=1P_OH_AL_2/0_Rucina_0_416_0_2_2

New Line.l(r:p1ulv28398-udt11446lv) Units=km Length=0.015633 bus1=udt11446lv.1.2 bus2=p1ulv28398.1.2 switch=n enabled=y phases=2 Linecode=1P_UG_AL_1/0_Brenau_0_416_0_2_2
