New Line.l(r:p1ulv1954-udt1063lv) Units=km Length=0.0156005 bus1=udt1063lv.1.2 bus2=p1ulv1954.1.2 switch=n enabled=y phases=2 Linecode=1P_OH_AL_2/0_Rucina_0_416_0_2_2

New Line.l(r:p1ulv1958-udt1063lv) Units=km Length=0.014654800000000003 bus1=udt1063lv.1.2 bus2=p1ulv1958.1.2 switch=n enabled=y phases=2 Linecode=1P_OH_AL_2/0_Rucina_0_416_0_2_2

New Line.l(r:p1ulv1960-udt1063lv) Units=km Length=0.015280400000000001 bus1=udt1063lv.1.2 bus2=p1ulv1960.1.2 switch=n enabled=y phases=2 Linecode=1P_OH_AL_2/0_Rucina_0_416_0_2_2

New Line.l(r:p1ulv52820-udt1063lv) Units=km Length=0.019119 bus1=udt1063lv.1.2 bus2=p1ulv52820.1.2 switch=n enabled=y phases=2 Linecode=1P_OH_AL_2/0_Rucina_0_416_0_2_2

New Line.l(r:p1ulv1961-udm4307) Units=km Length=0.015018000000000002 bus1=udm4307.1.2 bus2=p1ulv1961.1.2 switch=n enabled=y phases=2 Linecode=1P_OH_AL_2/0_Rucina_0_416_0_2_2

New Line.l(r:p1ulv24386-udm4307) Units=km Length=0.0176717 bus1=udm4307.1.2 bus2=p1ulv24386.1.2 switch=n enabled=y phases=2 Linecode=1P_OH_AL_2/0_Rucina_0_416_0_2_2

New Line.l(r:udm4307-udt1063lv) Units=km Length=0.017149500000000005 bus1=udt1063lv.1.2 bus2=udm4307.1.2 switch=n enabled=y phases=2 Linecode=1P_OH_AL_2/0_Rucina_0_416_0_2_2

New Line.l(r:p1ulv54205-udm4310) Units=km Length=0.0166322 bus1=udm4310.1.2 bus2=p1ulv54205.1.2 switch=n enabled=y phases=2 Linecode=1P_UG_AL_1/0_Brenau_0_416_0_2_2

New Line.l(r:p1ulv1957-udm4304) Units=km Length=0.0133318 bus1=udm4304.1.2 bus2=p1ulv1957.1.2 switch=n enabled=y phases=2 Linecode=1P_UG_AL_1/0_Brenau_0_416_0_2_2

New Line.l(r:udm4304-udm4310) Units=km Length=0.00946233 bus1=udm4310.1.2 bus2=udm4304.1.2 switch=n enabled=y phases=2 Linecode=1P_UG_AL_1/0_Brenau_0_416_0_2_2

New Line.l(r:udm4310-udt1063lv) Units=km Length=0.0571318 bus1=udt1063lv.1.2 bus2=udm4310.1.2 switch=n enabled=y phases=2 Linecode=1P_OH_AL_4/0_Zuzara_0_416_0_2_2

New Line.l(r:p1ulv55567-udt1064lv) Units=km Length=0.0205813 bus1=udt1064lv.1.2 bus2=p1ulv55567.1.2 switch=n enabled=y phases=2 Linecode=1P_UG_AL_1/0_Brenau_0_416_0_2_2

New Line.l(r:p1ulv52529-udm4313) Units=km Length=0.02159 bus1=udm4313.1.2 bus2=p1ulv52529.1.2 switch=n enabled=y phases=2 Linecode=1P_OH_AL_2/0_Rucina_0_416_0_2_2

New Line.l(r:p1ulv1955-udm4311) Units=km Length=0.014801100000000001 bus1=udm4311.1.2 bus2=p1ulv1955.1.2 switch=n enabled=y phases=2 Linecode=1P_OH_AL_2/0_Rucina_0_416_0_2_2

New Line.l(r:p1ulv54626-udm4311) Units=km Length=0.0194456 bus1=udm4311.1.2 bus2=p1ulv54626.1.2 switch=n enabled=y phases=2 Linecode=1P_OH_AL_2/0_Rucina_0_416_0_2_2

New Line.l(r:udm4311-udm4313) Units=km Length=0.0105139 bus1=udm4313.1.2 bus2=udm4311.1.2 switch=n enabled=y phases=2 Linecode=1P_OH_AL_2/0_Rucina_0_416_0_2_2

New Line.l(r:udm4313-udt1064lv) Units=km Length=0.0105134 bus1=udt1064lv.1.2 bus2=udm4313.1.2 switch=n enabled=y phases=2 Linecode=1P_OH_AL_2/0_Rucina_0_416_0_2_2

New Line.l(r:p1ulv60338-udm4317) Units=km Length=0.0322802 bus1=udm4317.1.2 bus2=p1ulv60338.1.2 switch=n enabled=y phases=2 Linecode=1P_OH_AL_4/0_Zuzara_0_416_0_2_2

New Line.l(r:p1ulv54919-udm4315) Units=km Length=0.018516300000000003 bus1=udm4315.1.2 bus2=p1ulv54919.1.2 switch=n enabled=y phases=2 Linecode=1P_OH_AL_2/0_Rucina_0_416_0_2_2

New Line.l(r:p1ulv52428-udm4312) Units=km Length=0.0194163 bus1=udm4312.1.2 bus2=p1ulv52428.1.2 switch=n enabled=y phases=2 Linecode=1P_OH_AL_2/0_Rucina_0_416_0_2_2

New Line.l(r:udm4312-udm4315) Units=km Length=0.0162791 bus1=udm4315.1.2 bus2=udm4312.1.2 switch=n enabled=y phases=2 Linecode=1P_OH_AL_2/0_Rucina_0_416_0_2_2

New Line.l(r:udm4315-udm4317) Units=km Length=0.01739 bus1=udm4317.1.2 bus2=udm4315.1.2 switch=n enabled=y phases=2 Linecode=1P_OH_AL_2/0_Rucina_0_416_0_2_2

New Line.l(r:udm4317-udt1064lv) Units=km Length=0.01739 bus1=udt1064lv.1.2 bus2=udm4317.1.2 switch=n enabled=y phases=2 Linecode=1P_OH_AL_2/0_Rucina_0_416_0_2_2

New Line.l(r:p1ulv1970-udt1065lv) Units=km Length=0.016260000000000004 bus1=udt1065lv.1.2 bus2=p1ulv1970.1.2 switch=n enabled=y phases=2 Linecode=1P_OH_AL_2/0_Rucina_0_416_0_2_2

New Line.l(r:p1ulv1972-udt1065lv) Units=km Length=0.0170905 bus1=udt1065lv.1.2 bus2=p1ulv1972.1.2 switch=n enabled=y phases=2 Linecode=1P_OH_AL_2/0_Rucina_0_416_0_2_2

New Line.l(r:p1ulv1962-udm4318) Units=km Length=0.0142111 bus1=udm4318.1.2 bus2=p1ulv1962.1.2 switch=n enabled=y phases=2 Linecode=1P_OH_AL_2/0_Rucina_0_416_0_2_2

New Line.l(r:p1ulv1964-udm4318) Units=km Length=0.0149264 bus1=udm4318.1.2 bus2=p1ulv1964.1.2 switch=n enabled=y phases=2 Linecode=1P_OH_AL_2/0_Rucina_0_416_0_2_2

New Line.l(r:udm4318-udt1065lv) Units=km Length=0.016711900000000002 bus1=udt1065lv.1.2 bus2=udm4318.1.2 switch=n enabled=y phases=2 Linecode=1P_OH_AL_2/0_Rucina_0_416_0_2_2

New Line.l(r:p1ulv1976-udm4322) Units=km Length=0.0170959 bus1=udm4322.1.2 bus2=p1ulv1976.1.2 switch=n enabled=y phases=2 Linecode=1P_OH_AL_2/0_Rucina_0_416_0_2_2

New Line.l(r:p1ulv1977-udm4322) Units=km Length=0.0169945 bus1=udm4322.1.2 bus2=p1ulv1977.1.2 switch=n enabled=y phases=2 Linecode=1P_OH_AL_2/0_Rucina_0_416_0_2_2

New Line.l(r:udm4322-udt1065lv) Units=km Length=0.0321442 bus1=udt1065lv.1.2 bus2=udm4322.1.2 switch=n enabled=y phases=2 Linecode=1P_OH_AL_4/0_Zuzara_0_416_0_2_2

New Line.l(r:p1ulv1965-udt1066lv) Units=km Length=0.0141947 bus1=udt1066lv.1.2 bus2=p1ulv1965.1.2 switch=n enabled=y phases=2 Linecode=1P_OH_AL_2/0_Rucina_0_416_0_2_2

New Line.l(r:p1ulv1966-udt1066lv) Units=km Length=0.014048 bus1=udt1066lv.1.2 bus2=p1ulv1966.1.2 switch=n enabled=y phases=2 Linecode=1P_OH_AL_2/0_Rucina_0_416_0_2_2

New Line.l(r:p1ulv2002-udt1066lv) Units=km Length=0.0698916 bus1=udt1066lv.1.2 bus2=p1ulv2002.1.2 switch=n enabled=y phases=2 Linecode=1P_OH_AL_4/0_Zuzara_0_416_0_2_2

New Line.l(r:p1ulv2003-udt1066lv) Units=km Length=0.0647009 bus1=udt1066lv.1.2 bus2=p1ulv2003.1.2 switch=n enabled=y phases=2 Linecode=1P_OH_AL_4/0_Zuzara_0_416_0_2_2

New Line.l(r:p1ulv2004-udt1066lv) Units=km Length=0.0600524 bus1=udt1066lv.1.2 bus2=p1ulv2004.1.2 switch=n enabled=y phases=2 Linecode=1P_OH_AL_4/0_Zuzara_0_416_0_2_2

New Line.l(r:p1ulv2005-udt1066lv) Units=km Length=0.0558144 bus1=udt1066lv.1.2 bus2=p1ulv2005.1.2 switch=n enabled=y phases=2 Linecode=1P_OH_AL_4/0_Zuzara_0_416_0_2_2

New Line.l(r:p1ulv2006-udt1066lv) Units=km Length=0.0506261 bus1=udt1066lv.1.2 bus2=p1ulv2006.1.2 switch=n enabled=y phases=2 Linecode=1P_OH_AL_4/0_Zuzara_0_416_0_2_2

New Line.l(r:p1ulv2007-udt1066lv) Units=km Length=0.0460401 bus1=udt1066lv.1.2 bus2=p1ulv2007.1.2 switch=n enabled=y phases=2 Linecode=1P_OH_AL_4/0_Zuzara_0_416_0_2_2

New Line.l(r:p1ulv2008-udt1066lv) Units=km Length=0.0411559 bus1=udt1066lv.1.2 bus2=p1ulv2008.1.2 switch=n enabled=y phases=2 Linecode=1P_OH_AL_4/0_Zuzara_0_416_0_2_2

New Line.l(r:p1ulv1968-udm4326) Units=km Length=0.0144724 bus1=udm4326.1.2 bus2=p1ulv1968.1.2 switch=n enabled=y phases=2 Linecode=1P_OH_AL_2/0_Rucina_0_416_0_2_2

New Line.l(r:p1ulv1969-udm4326) Units=km Length=0.0135618 bus1=udm4326.1.2 bus2=p1ulv1969.1.2 switch=n enabled=y phases=2 Linecode=1P_OH_AL_2/0_Rucina_0_416_0_2_2

New Line.l(r:p1ulv2009-udm4326) Units=km Length=0.0365113 bus1=udm4326.1.2 bus2=p1ulv2009.1.2 switch=n enabled=y phases=2 Linecode=1P_OH_AL_4/0_Zuzara_0_416_0_2_2

New Line.l(r:p1ulv24388-udm4326) Units=km Length=0.0175067 bus1=udm4326.1.2 bus2=p1ulv24388.1.2 switch=n enabled=y phases=2 Linecode=1P_OH_AL_2/0_Rucina_0_416_0_2_2

New Line.l(r:udm4326-udt1066lv) Units=km Length=0.0171595 bus1=udt1066lv.1.2 bus2=udm4326.1.2 switch=n enabled=y phases=2 Linecode=1P_OH_AL_2/0_Rucina_0_416_0_2_2

New Line.l(r:p1ulv1973-udt1067lv) Units=km Length=0.0165515 bus1=udt1067lv.1.2 bus2=p1ulv1973.1.2 switch=n enabled=y phases=2 Linecode=1P_OH_AL_2/0_Rucina_0_416_0_2_2

New Line.l(r:p1ulv1975-udt1067lv) Units=km Length=0.0170995 bus1=udt1067lv.1.2 bus2=p1ulv1975.1.2 switch=n enabled=y phases=2 Linecode=1P_OH_AL_2/0_Rucina_0_416_0_2_2

New Line.l(r:p1ulv1978-udt1068lv) Units=km Length=0.0607051 bus1=udt1068lv.1.2 bus2=p1ulv1978.1.2 switch=n enabled=y phases=2 Linecode=1P_OH_AL_4/0_Zuzara_0_416_0_2_2

New Line.l(r:p1ulv1979-udt1068lv) Units=km Length=0.061619700000000006 bus1=udt1068lv.1.2 bus2=p1ulv1979.1.2 switch=n enabled=y phases=2 Linecode=1P_OH_AL_4/0_Zuzara_0_416_0_2_2

New Line.l(r:p1ulv1980-udt1068lv) Units=km Length=0.0628881 bus1=udt1068lv.1.2 bus2=p1ulv1980.1.2 switch=n enabled=y phases=2 Linecode=1P_OH_AL_4/0_Zuzara_0_416_0_2_2

New Line.l(r:p1ulv1983-udt1068lv) Units=km Length=0.0600713 bus1=udt1068lv.1.2 bus2=p1ulv1983.1.2 switch=n enabled=y phases=2 Linecode=1P_OH_AL_4/0_Zuzara_0_416_0_2_2

New Line.l(r:p1ulv1984-udt1068lv) Units=km Length=0.059784 bus1=udt1068lv.1.2 bus2=p1ulv1984.1.2 switch=n enabled=y phases=2 Linecode=1P_OH_AL_4/0_Zuzara_0_416_0_2_2

New Line.l(r:p1ulv53761-udt1068lv) Units=km Length=0.0181008 bus1=udt1068lv.1.2 bus2=p1ulv53761.1.2 switch=n enabled=y phases=2 Linecode=1P_OH_AL_2/0_Rucina_0_416_0_2_2

New Line.l(r:p1ulv1981-udm4342) Units=km Length=0.06414240000000002 bus1=udm4342.1.2 bus2=p1ulv1981.1.2 switch=n enabled=y phases=2 Linecode=1P_OH_AL_4/0_Zuzara_0_416_0_2_2

New Line.l(r:udm4342-udt1068lv) Units=km Length=0.012829500000000002 bus1=udt1068lv.1.2 bus2=udm4342.1.2 switch=n enabled=y phases=2 Linecode=1P_OH_AL_2/0_Rucina_0_416_0_2_2

New Line.l(r:p1ulv1985-udm4345) Units=km Length=0.0594323 bus1=udm4345.1.2 bus2=p1ulv1985.1.2 switch=n enabled=y phases=2 Linecode=1P_OH_AL_4/0_Zuzara_0_416_0_2_2

New Line.l(r:p1ulv1987-udm4346) Units=km Length=0.0579646 bus1=udm4346.1.2 bus2=p1ulv1987.1.2 switch=n enabled=y phases=2 Linecode=1P_OH_AL_4/0_Zuzara_0_416_0_2_2

New Line.l(r:p1ulv1989-udm4346) Units=km Length=0.0582031 bus1=udm4346.1.2 bus2=p1ulv1989.1.2 switch=n enabled=y phases=2 Linecode=1P_OH_AL_4/0_Zuzara_0_416_0_2_2

New Line.l(r:p1ulv55838-udm4346) Units=km Length=0.0165197 bus1=udm4346.1.2 bus2=p1ulv55838.1.2 switch=n enabled=y phases=2 Linecode=1P_OH_AL_2/0_Rucina_0_416_0_2_2

New Line.l(r:udm4345-udm4346) Units=km Length=0.0114477 bus1=udm4345.1.2 bus2=udm4346.1.2 switch=n enabled=y phases=2 Linecode=1P_OH_AL_2/0_Rucina_0_416_0_2_2

New Line.l(r:udm4345-udt1068lv) Units=km Length=0.0114374 bus1=udt1068lv.1.2 bus2=udm4345.1.2 switch=n enabled=y phases=2 Linecode=1P_OH_AL_2/0_Rucina_0_416_0_2_2

New Line.l(r:p1ulv1982-udt1069lv) Units=km Length=0.0639761 bus1=udt1069lv.1.2 bus2=p1ulv1982.1.2 switch=n enabled=y phases=2 Linecode=1P_UG_AL_1/0_Brenau_0_416_0_2_2

New Line.l(r:p1ulv46242-udm4351) Units=km Length=0.0196789 bus1=udm4351.1.2 bus2=p1ulv46242.1.2 switch=n enabled=y phases=2 Linecode=1P_OH_AL_2/0_Rucina_0_416_0_2_2

New Line.l(r:p1ulv57883-udm4353) Units=km Length=0.014539 bus1=udm4353.1.2 bus2=p1ulv57883.1.2 switch=n enabled=y phases=2 Linecode=1P_OH_AL_2/0_Rucina_0_416_0_2_2

New Line.l(r:p1ulv58337-udm4353) Units=km Length=0.0161929 bus1=udm4353.1.2 bus2=p1ulv58337.1.2 switch=n enabled=y phases=2 Linecode=1P_OH_AL_2/0_Rucina_0_416_0_2_2

New Line.l(r:udm4351-udm4353) Units=km Length=0.0238563 bus1=udm4351.1.2 bus2=udm4353.1.2 switch=n enabled=y phases=2 Linecode=1P_OH_AL_2/0_Rucina_0_416_0_2_2

New Line.l(r:udm4351-udt1069lv) Units=km Length=0.0215617 bus1=udt1069lv.1.2 bus2=udm4351.1.2 switch=n enabled=y phases=2 Linecode=1P_OH_AL_2/0_Rucina_0_416_0_2_2

New Line.l(r:p1ulv53064-udm4352) Units=km Length=0.0188718 bus1=udm4352.1.2 bus2=p1ulv53064.1.2 switch=n enabled=y phases=2 Linecode=1P_UG_AL_1/0_Brenau_0_416_0_2_2

New Line.l(r:p1ulv57986-udm4352) Units=km Length=0.016809400000000002 bus1=udm4352.1.2 bus2=p1ulv57986.1.2 switch=n enabled=y phases=2 Linecode=1P_UG_AL_1/0_Brenau_0_416_0_2_2

New Line.l(r:p1ulv60578-udm4356) Units=km Length=0.018247200000000005 bus1=udm4356.1.2 bus2=p1ulv60578.1.2 switch=n enabled=y phases=2 Linecode=1P_UG_AL_1/0_Brenau_0_416_0_2_2

New Line.l(r:udm4352-udm4356) Units=km Length=0.0176334 bus1=udm4352.1.2 bus2=udm4356.1.2 switch=n enabled=y phases=2 Linecode=1P_UG_AL_1/0_Brenau_0_416_0_2_2

New Line.l(r:udm4352-udt1069lv) Units=km Length=0.024473 bus1=udt1069lv.1.2 bus2=udm4352.1.2 switch=n enabled=y phases=2 Linecode=1P_UG_AL_2/0_Converse_0_416_0_2_2

New Line.l(r:p1ulv1986-udt1070lv) Units=km Length=0.0571801 bus1=udt1070lv.1.2 bus2=p1ulv1986.1.2 switch=n enabled=y phases=2 Linecode=1P_OH_AL_4/0_Zuzara_0_416_0_2_2

New Line.l(r:p1ulv1990-udt1070lv) Units=km Length=0.0521468 bus1=udt1070lv.1.2 bus2=p1ulv1990.1.2 switch=n enabled=y phases=2 Linecode=1P_OH_AL_4/0_Zuzara_0_416_0_2_2

New Line.l(r:p1ulv1991-udt1070lv) Units=km Length=0.0473439 bus1=udt1070lv.1.2 bus2=p1ulv1991.1.2 switch=n enabled=y phases=2 Linecode=1P_OH_AL_4/0_Zuzara_0_416_0_2_2

New Line.l(r:p1ulv1992-udt1070lv) Units=km Length=0.043331400000000006 bus1=udt1070lv.1.2 bus2=p1ulv1992.1.2 switch=n enabled=y phases=2 Linecode=1P_OH_AL_4/0_Zuzara_0_416_0_2_2

New Line.l(r:p1ulv1993-udt1070lv) Units=km Length=0.0380784 bus1=udt1070lv.1.2 bus2=p1ulv1993.1.2 switch=n enabled=y phases=2 Linecode=1P_OH_AL_4/0_Zuzara_0_416_0_2_2

New Line.l(r:p1ulv1994-udm4362) Units=km Length=0.0356416 bus1=udm4362.1.2 bus2=p1ulv1994.1.2 switch=n enabled=y phases=2 Linecode=1P_OH_AL_4/0_Zuzara_0_416_0_2_2

New Line.l(r:p1ulv1995-udm4362) Units=km Length=0.0356757 bus1=udm4362.1.2 bus2=p1ulv1995.1.2 switch=n enabled=y phases=2 Linecode=1P_OH_AL_4/0_Zuzara_0_416_0_2_2

New Line.l(r:p1ulv1996-udm4362) Units=km Length=0.0363583 bus1=udm4362.1.2 bus2=p1ulv1996.1.2 switch=n enabled=y phases=2 Linecode=1P_OH_AL_4/0_Zuzara_0_416_0_2_2

New Line.l(r:udm4362-udt1070lv) Units=km Length=0.0191857 bus1=udt1070lv.1.2 bus2=udm4362.1.2 switch=n enabled=y phases=2 Linecode=1P_OH_AL_2/0_Rucina_0_416_0_2_2

New Line.l(r:p1ulv1997-udt1071lv) Units=km Length=0.0361646 bus1=udt1071lv.1.2 bus2=p1ulv1997.1.2 switch=n enabled=y phases=2 Linecode=1P_OH_AL_4/0_Zuzara_0_416_0_2_2

New Line.l(r:p1ulv1999-udt1071lv) Units=km Length=0.0367443 bus1=udt1071lv.1.2 bus2=p1ulv1999.1.2 switch=n enabled=y phases=2 Linecode=1P_OH_AL_4/0_Zuzara_0_416_0_2_2

New Line.l(r:p1ulv2001-udm4367) Units=km Length=0.0366942 bus1=udm4367.1.2 bus2=p1ulv2001.1.2 switch=n enabled=y phases=2 Linecode=1P_OH_AL_4/0_Zuzara_0_416_0_2_2

New Line.l(r:udm4367-udt1071lv) Units=km Length=0.0191857 bus1=udt1071lv.1.2 bus2=udm4367.1.2 switch=n enabled=y phases=2 Linecode=1P_OH_AL_2/0_Rucina_0_416_0_2_2

New Line.l(r:p1ulv3249-udt1490lv) Units=km Length=0.0157497 bus1=udt1490lv.1.2 bus2=p1ulv3249.1.2 switch=n enabled=y phases=2 Linecode=1P_OH_AL_2/0_Rucina_0_416_0_2_2

New Line.l(r:p1ulv39672-udt1490lv) Units=km Length=0.0283513 bus1=udt1490lv.1.2 bus2=p1ulv39672.1.2 switch=n enabled=y phases=2 Linecode=1P_OH_AL_4/0_Zuzara_0_416_0_2_2

New Line.l(r:p1ulv55091-udm6058) Units=km Length=0.0165312 bus1=udm6058.1.2 bus2=p1ulv55091.1.2 switch=n enabled=y phases=2 Linecode=1P_OH_AL_2/0_Rucina_0_416_0_2_2

New Line.l(r:udm6058-udt1490lv) Units=km Length=0.0111556 bus1=udt1490lv.1.2 bus2=udm6058.1.2 switch=n enabled=y phases=2 Linecode=1P_OH_AL_2/0_Rucina_0_416_0_2_2

New Line.l(r:p1ulv3250-udt1491lv) Units=km Length=0.0228982 bus1=udt1491lv.1.2 bus2=p1ulv3250.1.2 switch=n enabled=y phases=2 Linecode=1P_OH_AL_2/0_Rucina_0_416_0_2_2

New Line.l(r:p1ulv3253-udt1491lv) Units=km Length=0.0376875 bus1=udt1491lv.1.2 bus2=p1ulv3253.1.2 switch=n enabled=y phases=2 Linecode=1P_OH_AL_4/0_Zuzara_0_416_0_2_2

New Line.l(r:p1ulv40114-udt1491lv) Units=km Length=0.0324144 bus1=udt1491lv.1.2 bus2=p1ulv40114.1.2 switch=n enabled=y phases=2 Linecode=1P_OH_AL_4/0_Zuzara_0_416_0_2_2

New Line.l(r:p1ulv53661-udt1491lv) Units=km Length=0.0388069 bus1=udt1491lv.1.2 bus2=p1ulv53661.1.2 switch=n enabled=y phases=2 Linecode=1P_OH_AL_4/0_Zuzara_0_416_0_2_2

New Line.l(r:p1ulv60156-udt1491lv) Units=km Length=0.0311957 bus1=udt1491lv.1.2 bus2=p1ulv60156.1.2 switch=n enabled=y phases=2 Linecode=1P_OH_AL_4/0_Zuzara_0_416_0_2_2

New Line.l(r:p1ulv43249-udm6062) Units=km Length=0.0192962 bus1=udm6062.1.2 bus2=p1ulv43249.1.2 switch=n enabled=y phases=2 Linecode=1P_OH_AL_2/0_Rucina_0_416_0_2_2

New Line.l(r:p1ulv60206-udm6062) Units=km Length=0.0158174 bus1=udm6062.1.2 bus2=p1ulv60206.1.2 switch=n enabled=y phases=2 Linecode=1P_OH_AL_2/0_Rucina_0_416_0_2_2

New Line.l(r:udm6062-udt1491lv) Units=km Length=0.0198052 bus1=udt1491lv.1.2 bus2=udm6062.1.2 switch=n enabled=y phases=2 Linecode=1P_OH_AL_2/0_Rucina_0_416_0_2_2

New Line.l(r:p1ulv52653-udt1492lv) Units=km Length=0.017646 bus1=udt1492lv.1.2 bus2=p1ulv52653.1.2 switch=n enabled=y phases=2 Linecode=1P_OH_AL_2/0_Rucina_0_416_0_2_2

New Line.l(r:p1ulv3251-udm6066) Units=km Length=0.017073 bus1=udm6066.1.2 bus2=p1ulv3251.1.2 switch=n enabled=y phases=2 Linecode=1P_OH_AL_2/0_Rucina_0_416_0_2_2

New Line.l(r:p1ulv57013-udm6071) Units=km Length=0.0166499 bus1=udm6071.1.2 bus2=p1ulv57013.1.2 switch=n enabled=y phases=2 Linecode=1P_OH_AL_2/0_Rucina_0_416_0_2_2

New Line.l(r:p1ulv54075-udm6070) Units=km Length=0.015583000000000001 bus1=udm6070.1.2 bus2=p1ulv54075.1.2 switch=n enabled=y phases=2 Linecode=1P_OH_AL_2/0_Rucina_0_416_0_2_2

New Line.l(r:udm6070-udm6071) Units=km Length=0.0146959 bus1=udm6071.1.2 bus2=udm6070.1.2 switch=n enabled=y phases=2 Linecode=1P_OH_AL_2/0_Rucina_0_416_0_2_2

New Line.l(r:udm6066-udm6071) Units=km Length=0.0147011 bus1=udm6066.1.2 bus2=udm6071.1.2 switch=n enabled=y phases=2 Linecode=1P_OH_AL_2/0_Rucina_0_416_0_2_2

New Line.l(r:udm6066-udt1492lv) Units=km Length=0.0114619 bus1=udt1492lv.1.2 bus2=udm6066.1.2 switch=n enabled=y phases=2 Linecode=1P_OH_AL_2/0_Rucina_0_416_0_2_2

New Line.l(r:p1ulv41345-udm6067) Units=km Length=0.0155639 bus1=udm6067.1.2 bus2=p1ulv41345.1.2 switch=n enabled=y phases=2 Linecode=1P_OH_AL_2/0_Rucina_0_416_0_2_2

New Line.l(r:p1ulv46436-udm6068) Units=km Length=0.0152488 bus1=udm6068.1.2 bus2=p1ulv46436.1.2 switch=n enabled=y phases=2 Linecode=1P_OH_AL_2/0_Rucina_0_416_0_2_2

New Line.l(r:p1ulv59518-udm6068) Units=km Length=0.0195211 bus1=udm6068.1.2 bus2=p1ulv59518.1.2 switch=n enabled=y phases=2 Linecode=1P_OH_AL_2/0_Rucina_0_416_0_2_2

New Line.l(r:udm6067-udm6068) Units=km Length=0.0186729 bus1=udm6067.1.2 bus2=udm6068.1.2 switch=n enabled=y phases=2 Linecode=1P_OH_AL_2/0_Rucina_0_416_0_2_2

New Line.l(r:udm6067-udt1492lv) Units=km Length=0.011461 bus1=udt1492lv.1.2 bus2=udm6067.1.2 switch=n enabled=y phases=2 Linecode=1P_OH_AL_2/0_Rucina_0_416_0_2_2

New Line.l(r:p1ulv3252-udt1493lv) Units=km Length=0.0191845 bus1=udt1493lv.1.2 bus2=p1ulv3252.1.2 switch=n enabled=y phases=2 Linecode=1P_OH_AL_2/0_Rucina_0_416_0_2_2

New Line.l(r:p1ulv48048-udt1493lv) Units=km Length=0.0173031 bus1=udt1493lv.1.2 bus2=p1ulv48048.1.2 switch=n enabled=y phases=2 Linecode=1P_OH_AL_2/0_Rucina_0_416_0_2_2

New Line.l(r:p1ulv50228-udm6075) Units=km Length=0.018525 bus1=udm6075.1.2 bus2=p1ulv50228.1.2 switch=n enabled=y phases=2 Linecode=1P_OH_AL_2/0_Rucina_0_416_0_2_2

New Line.l(r:udm6075-udt1493lv) Units=km Length=0.01939 bus1=udt1493lv.1.2 bus2=udm6075.1.2 switch=n enabled=y phases=2 Linecode=1P_OH_AL_2/0_Rucina_0_416_0_2_2

New Line.l(r:p1ulv3766-udt1778lv) Units=km Length=0.0106236 bus1=udt1778lv.1.2 bus2=p1ulv3766.1.2 switch=n enabled=y phases=2 Linecode=1P_UG_AL_1/0_Brenau_0_416_0_2_2

New Line.l(r:p1ulv3767-udt1778lv) Units=km Length=0.0303636 bus1=udt1778lv.1.2 bus2=p1ulv3767.1.2 switch=n enabled=y phases=2 Linecode=1P_UG_AL_1/0_Brenau_0_416_0_2_2

New Line.l(r:p1ulv3764-udm7014) Units=km Length=0.0107025 bus1=udm7014.1.2 bus2=p1ulv3764.1.2 switch=n enabled=y phases=2 Linecode=1P_UG_AL_4/0_Sweetbriar_0_416_0_2_2

New Line.l(r:udm7014-udt1778lv) Units=km Length=0.0470995 bus1=udt1778lv.1.2 bus2=udm7014.1.2 switch=n enabled=y phases=2 Linecode=1P_UG_AL_4/0_Sweetbriar_0_416_0_2_2

New Line.l(r:p1ulv26393-udm7017) Units=km Length=0.0149954 bus1=udm7017.1.2 bus2=p1ulv26393.1.2 switch=n enabled=y phases=2 Linecode=1P_UG_AL_1/0_Brenau_0_416_0_2_2

New Line.l(r:udm7017-udt1778lv) Units=km Length=0.028993200000000004 bus1=udt1778lv.1.2 bus2=udm7017.1.2 switch=n enabled=y phases=2 Linecode=1P_UG_AL_1/0_Brenau_0_416_0_2_2

New Line.l(r:p1ulv3768-udm7018) Units=km Length=0.0160493 bus1=udm7018.1.2 bus2=p1ulv3768.1.2 switch=n enabled=y phases=2 Linecode=1P_OH_AL_2/0_Rucina_0_416_0_2_2

New Line.l(r:p1ulv22836-udm7018) Units=km Length=0.0123063 bus1=udm7018.1.2 bus2=p1ulv22836.1.2 switch=n enabled=y phases=2 Linecode=1P_OH_AL_2/0_Rucina_0_416_0_2_2

New Line.l(r:udm7018-udt1779lv) Units=km Length=0.0169722 bus1=udt1779lv.1.2 bus2=udm7018.1.2 switch=n enabled=y phases=2 Linecode=1P_OH_AL_2/0_Rucina_0_416_0_2_0_2

New Line.l(r:p1ulv3769-udm7019) Units=km Length=0.0122003 bus1=udm7019.1.2 bus2=p1ulv3769.1.2 switch=n enabled=y phases=2 Linecode=1P_OH_AL_2/0_Rucina_0_416_0_2_2

New Line.l(r:udm7019-udt1779lv) Units=km Length=0.0247873 bus1=udt1779lv.1.2 bus2=udm7019.1.2 switch=n enabled=y phases=2 Linecode=1P_OH_AL_2/0_Rucina_0_416_0_2_2

New Line.l(r:p1ulv3771-udm7024) Units=km Length=0.0272297 bus1=udm7024.1.2 bus2=p1ulv3771.1.2 switch=n enabled=y phases=2 Linecode=1P_UG_AL_4/0_Sweetbriar_0_416_0_2_2

New Line.l(r:udm7024-udt1781lv) Units=km Length=0.027497 bus1=udt1781lv.1.2 bus2=udm7024.1.2 switch=n enabled=y phases=2 Linecode=1P_UG_AL_4/0_Sweetbriar_0_416_0_2_2

New Line.l(r:p1ulv43763-udm7025) Units=km Length=0.0301979 bus1=udm7025.1.2 bus2=p1ulv43763.1.2 switch=n enabled=y phases=2 Linecode=1P_UG_AL_1/0_Brenau_0_416_0_2_2

New Line.l(r:udm7025-udt1781lv) Units=km Length=0.0366554 bus1=udt1781lv.1.2 bus2=udm7025.1.2 switch=n enabled=y phases=2 Linecode=1P_UG_AL_1/0_Brenau_0_416_0_2_2

New Line.l(r:p1ulv4919-udt2254lv) Units=km Length=0.0151422 bus1=udt2254lv.1.2 bus2=p1ulv4919.1.2 switch=n enabled=y phases=2 Linecode=1P_UG_AL_1/0_Brenau_0_416_0_2_2

New Line.l(r:p1ulv49822-udm8998) Units=km Length=0.0152286 bus1=udm8998.1.2 bus2=p1ulv49822.1.2 switch=n enabled=y phases=2 Linecode=1P_UG_AL_1/0_Brenau_0_416_0_2_2

New Line.l(r:p1ulv4932-udm8997) Units=km Length=0.0145116 bus1=udm8997.1.2 bus2=p1ulv4932.1.2 switch=n enabled=y phases=2 Linecode=1P_UG_AL_1/0_Brenau_0_416_0_2_2

New Line.l(r:udm8997-udm8998) Units=km Length=0.0174168 bus1=udm8998.1.2 bus2=udm8997.1.2 switch=n enabled=y phases=2 Linecode=1P_UG_AL_1/0_Brenau_0_416_0_2_2

New Line.l(r:udm8998-udt2254lv) Units=km Length=0.00966828 bus1=udt2254lv.1.2 bus2=udm8998.1.2 switch=n enabled=y phases=2 Linecode=1P_UG_AL_1/0_Brenau_0_416_0_2_2

New Line.l(r:p1ulv57411-udm9000) Units=km Length=0.022602 bus1=udm9000.1.2 bus2=p1ulv57411.1.2 switch=n enabled=y phases=2 Linecode=1P_UG_AL_1/0_Brenau_0_416_0_2_2

New Line.l(r:p1ulv53119-udm8999) Units=km Length=0.0207407 bus1=udm8999.1.2 bus2=p1ulv53119.1.2 switch=n enabled=y phases=2 Linecode=1P_UG_AL_1/0_Brenau_0_416_0_2_2

New Line.l(r:p1ulv60261-udm9001) Units=km Length=0.014533100000000002 bus1=udm9001.1.2 bus2=p1ulv60261.1.2 switch=n enabled=y phases=2 Linecode=1P_UG_AL_1/0_Brenau_0_416_0_2_2

New Line.l(r:udm8999-udm9001) Units=km Length=0.00966938 bus1=udm8999.1.2 bus2=udm9001.1.2 switch=n enabled=y phases=2 Linecode=1P_UG_AL_1/0_Brenau_0_416_0_2_2

New Line.l(r:udm8999-udm9000) Units=km Length=0.00966828 bus1=udm9000.1.2 bus2=udm8999.1.2 switch=n enabled=y phases=2 Linecode=1P_UG_AL_1/0_Brenau_0_416_0_2_2

New Line.l(r:udm9000-udt2254lv) Units=km Length=0.00965945 bus1=udt2254lv.1.2 bus2=udm9000.1.2 switch=n enabled=y phases=2 Linecode=1P_UG_AL_2/0_Converse_0_416_0_2_2

New Line.l(r:p1ulv4921-udt2256lv) Units=km Length=0.014245100000000002 bus1=udt2256lv.1.2 bus2=p1ulv4921.1.2 switch=n enabled=y phases=2 Linecode=1P_UG_AL_1/0_Brenau_0_416_0_2_2

New Line.l(r:p1ulv59204-udm9010) Units=km Length=0.011864800000000002 bus1=udm9010.1.2 bus2=p1ulv59204.1.2 switch=n enabled=y phases=2 Linecode=1P_UG_AL_1/0_Brenau_0_416_0_2_2

New Line.l(r:udm9010-udt2256lv) Units=km Length=0.0273959 bus1=udt2256lv.1.2 bus2=udm9010.1.2 switch=n enabled=y phases=2 Linecode=1P_UG_AL_1/0_Brenau_0_416_0_2_2

New Line.l(r:p1ulv60671-udm9011) Units=km Length=0.0129087 bus1=udm9011.1.2 bus2=p1ulv60671.1.2 switch=n enabled=y phases=2 Linecode=1P_UG_AL_1/0_Brenau_0_416_0_2_2

New Line.l(r:udm9011-udt2256lv) Units=km Length=0.0182499 bus1=udt2256lv.1.2 bus2=udm9011.1.2 switch=n enabled=y phases=2 Linecode=1P_UG_AL_1/0_Brenau_0_416_0_2_2

New Line.l(r:p1ulv4922-udm9012) Units=km Length=0.0192093 bus1=udm9012.1.2 bus2=p1ulv4922.1.2 switch=n enabled=y phases=2 Linecode=1P_UG_AL_1/0_Brenau_0_416_0_2_2

New Line.l(r:p1ulv4970-udm9013) Units=km Length=0.0173551 bus1=udm9013.1.2 bus2=p1ulv4970.1.2 switch=n enabled=y phases=2 Linecode=1P_UG_AL_1/0_Brenau_0_416_0_2_2

New Line.l(r:udm9012-udm9013) Units=km Length=0.0198567 bus1=udm9012.1.2 bus2=udm9013.1.2 switch=n enabled=y phases=2 Linecode=1P_UG_AL_1/0_Brenau_0_416_0_2_2

New Line.l(r:udm9012-udt2257lv) Units=km Length=0.00993202 bus1=udt2257lv.1.2 bus2=udm9012.1.2 switch=n enabled=y phases=2 Linecode=1P_UG_AL_4/0_Sweetbriar_0_416_0_2_2

New Line.l(r:p1ulv46541-udm9015) Units=km Length=0.0117253 bus1=udm9015.1.2 bus2=p1ulv46541.1.2 switch=n enabled=y phases=2 Linecode=1P_UG_AL_1/0_Brenau_0_416_0_2_2

New Line.l(r:p1ulv40030-udm9014) Units=km Length=0.010429800000000001 bus1=udm9014.1.2 bus2=p1ulv40030.1.2 switch=n enabled=y phases=2 Linecode=1P_UG_AL_1/0_Brenau_0_416_0_2_2

New Line.l(r:udm9014-udm9015) Units=km Length=0.009710620000000001 bus1=udm9015.1.2 bus2=udm9014.1.2 switch=n enabled=y phases=2 Linecode=1P_UG_AL_1/0_Brenau_0_416_0_2_2

New Line.l(r:udm9015-udt2257lv) Units=km Length=0.009710620000000001 bus1=udt2257lv.1.2 bus2=udm9015.1.2 switch=n enabled=y phases=2 Linecode=1P_UG_AL_1/0_Brenau_0_416_0_2_2

New Line.l(r:p1ulv58289-udm9017) Units=km Length=0.0190159 bus1=udm9017.1.2 bus2=p1ulv58289.1.2 switch=n enabled=y phases=2 Linecode=1P_UG_AL_1/0_Brenau_0_416_0_2_2

New Line.l(r:p1ulv52455-udm9016) Units=km Length=0.0192565 bus1=udm9016.1.2 bus2=p1ulv52455.1.2 switch=n enabled=y phases=2 Linecode=1P_UG_AL_1/0_Brenau_0_416_0_2_2

New Line.l(r:udm9016-udm9017) Units=km Length=0.008768230000000002 bus1=udm9017.1.2 bus2=udm9016.1.2 switch=n enabled=y phases=2 Linecode=1P_UG_AL_1/0_Brenau_0_416_0_2_2

New Line.l(r:udm9017-udt2257lv) Units=km Length=0.00877796 bus1=udt2257lv.1.2 bus2=udm9017.1.2 switch=n enabled=y phases=2 Linecode=1P_UG_AL_1/0_Brenau_0_416_0_2_2

New Line.l(r:p1ulv4923-udm9018) Units=km Length=0.0193958 bus1=udm9018.1.2 bus2=p1ulv4923.1.2 switch=n enabled=y phases=2 Linecode=1P_UG_AL_1/0_Brenau_0_416_0_2_2

New Line.l(r:p1ulv4965-udm9018) Units=km Length=0.0128245 bus1=udm9018.1.2 bus2=p1ulv4965.1.2 switch=n enabled=y phases=2 Linecode=1P_UG_AL_1/0_Brenau_0_416_0_2_2

New Line.l(r:p1ulv50141-udm9022) Units=km Length=0.0111766 bus1=udm9022.1.2 bus2=p1ulv50141.1.2 switch=n enabled=y phases=2 Linecode=1P_UG_AL_1/0_Brenau_0_416_0_2_2

New Line.l(r:p1ulv4927-udm9019) Units=km Length=0.0187547 bus1=udm9019.1.2 bus2=p1ulv4927.1.2 switch=n enabled=y phases=2 Linecode=1P_UG_AL_1/0_Brenau_0_416_0_2_2

New Line.l(r:udm9019-udm9022) Units=km Length=0.008768230000000002 bus1=udm9022.1.2 bus2=udm9019.1.2 switch=n enabled=y phases=2 Linecode=1P_UG_AL_1/0_Brenau_0_416_0_2_2

New Line.l(r:udm9018-udm9022) Units=km Length=0.008768230000000002 bus1=udm9018.1.2 bus2=udm9022.1.2 switch=n enabled=y phases=2 Linecode=1P_UG_AL_1/0_Brenau_0_416_0_2_2

New Line.l(r:udm9018-udt2258lv) Units=km Length=0.00877796 bus1=udt2258lv.1.2 bus2=udm9018.1.2 switch=n enabled=y phases=2 Linecode=1P_UG_AL_4/0_Sweetbriar_0_416_0_2_2

New Line.l(r:p1ulv4979-udm9021) Units=km Length=0.01264 bus1=udm9021.1.2 bus2=p1ulv4979.1.2 switch=n enabled=y phases=2 Linecode=1P_UG_AL_1/0_Brenau_0_416_0_2_2

New Line.l(r:p1ulv52749-udm9021) Units=km Length=0.0220396 bus1=udm9021.1.2 bus2=p1ulv52749.1.2 switch=n enabled=y phases=2 Linecode=1P_UG_AL_1/0_Brenau_0_416_0_2_2

New Line.l(r:udm9021-udt2258lv) Units=km Length=0.0274338 bus1=udt2258lv.1.2 bus2=udm9021.1.2 switch=n enabled=y phases=2 Linecode=1P_UG_AL_2/0_Converse_0_416_0_2_2

New Line.l(r:p1ulv4925-udm9026) Units=km Length=0.0202475 bus1=udm9026.1.2 bus2=p1ulv4925.1.2 switch=n enabled=y phases=2 Linecode=1P_UG_AL_1/0_Brenau_0_416_0_2_2

New Line.l(r:udm9026-udt2260lv) Units=km Length=0.009327920000000002 bus1=udt2260lv.1.2 bus2=udm9026.1.2 switch=n enabled=y phases=2 Linecode=1P_UG_AL_1/0_Brenau_0_416_0_2_2

New Line.l(r:p1ulv4981-udm9027) Units=km Length=0.00824155 bus1=udm9027.1.2 bus2=p1ulv4981.1.2 switch=n enabled=y phases=2 Linecode=1P_UG_AL_1/0_Brenau_0_416_0_2_2

New Line.l(r:udm9027-udt2260lv) Units=km Length=0.0196999 bus1=udt2260lv.1.2 bus2=udm9027.1.2 switch=n enabled=y phases=2 Linecode=1P_UG_AL_1/0_Brenau_0_416_0_2_2

New Line.l(r:p1ulv53056-udm9028) Units=km Length=0.0182186 bus1=udm9028.1.2 bus2=p1ulv53056.1.2 switch=n enabled=y phases=2 Linecode=1P_UG_AL_1/0_Brenau_0_416_0_2_2

New Line.l(r:udm9028-udt2260lv) Units=km Length=0.0096045 bus1=udt2260lv.1.2 bus2=udm9028.1.2 switch=n enabled=y phases=2 Linecode=1P_UG_AL_1/0_Brenau_0_416_0_2_2

New Line.l(r:p1ulv4926-udt2261lv) Units=km Length=0.0157284 bus1=udt2261lv.1.2 bus2=p1ulv4926.1.2 switch=n enabled=y phases=2 Linecode=1P_UG_AL_1/0_Brenau_0_416_0_2_2

New Line.l(r:p1ulv53591-udt2261lv) Units=km Length=0.0119056 bus1=udt2261lv.1.2 bus2=p1ulv53591.1.2 switch=n enabled=y phases=2 Linecode=1P_UG_AL_1/0_Brenau_0_416_0_2_2

New Line.l(r:p1ulv4954-udm9030) Units=km Length=0.0144965 bus1=udm9030.1.2 bus2=p1ulv4954.1.2 switch=n enabled=y phases=2 Linecode=1P_UG_AL_1/0_Brenau_0_416_0_2_2

New Line.l(r:udm9030-udt2261lv) Units=km Length=0.0788372 bus1=udt2261lv.1.2 bus2=udm9030.1.2 switch=n enabled=y phases=2 Linecode=1P_UG_AL_1/0_Brenau_0_416_0_2_2

New Line.l(r:p1ulv4928-udt2262lv) Units=km Length=0.0153608 bus1=udt2262lv.1.2 bus2=p1ulv4928.1.2 switch=n enabled=y phases=2 Linecode=1P_UG_AL_1/0_Brenau_0_416_0_2_2

New Line.l(r:p1ulv4933-udt2262lv) Units=km Length=0.018332 bus1=udt2262lv.1.2 bus2=p1ulv4933.1.2 switch=n enabled=y phases=2 Linecode=1P_UG_AL_1/0_Brenau_0_416_0_2_2

New Line.l(r:p1ulv4977-udm9035) Units=km Length=0.0163911 bus1=udm9035.1.2 bus2=p1ulv4977.1.2 switch=n enabled=y phases=2 Linecode=1P_UG_AL_1/0_Brenau_0_416_0_2_2
