New Load.load_p1ulv1954 conn=wye bus1=p1ulv1954.1.2 kV=0.2080002494301389 Vminpu=0.8 Vmaxpu=1.2 model=1 kW=10.35 kvar=0.5802128332421591 Phases=2

New Load.load_p1ulv1955 conn=wye bus1=p1ulv1955.1.2 kV=0.2080002494301389 Vminpu=0.8 Vmaxpu=1.2 model=1 kW=9.72 kvar=0.4496313641006546 Phases=2

New Load.load_p1ulv1956 conn=wye bus1=p1ulv1955.1.2 kV=0.2080002494301389 Vminpu=0.8 Vmaxpu=1.2 model=1 kW=10.07 kvar=0.520520578499115 Phases=2

New Load.load_p1ulv1957 conn=wye bus1=p1ulv1957.1.2 kV=0.2080002494301389 Vminpu=0.8 Vmaxpu=1.2 model=1 kW=2.63003 kvar=0.5299077931576943 Phases=2

New Load.load_p1ulv1958 conn=wye bus1=p1ulv1958.1.2 kV=0.2080002494301389 Vminpu=0.8 Vmaxpu=1.2 model=1 kW=10.14 kvar=0.5402110512846091 Phases=2

New Load.load_p1ulv1959 conn=wye bus1=p1ulv1958.1.2 kV=0.2080002494301389 Vminpu=0.8 Vmaxpu=1.2 model=1 kW=9.89 kvar=0.49029398470315966 Phases=2

New Load.load_p1ulv1960 conn=wye bus1=p1ulv1960.1.2 kV=0.2080002494301389 Vminpu=0.8 Vmaxpu=1.2 model=1 kW=9.62 kvar=0.4304884217173018 Phases=2

New Load.load_p1ulv1961 conn=wye bus1=p1ulv1961.1.2 kV=0.2080002494301389 Vminpu=0.8 Vmaxpu=1.2 model=1 kW=2.60003 kvar=0.5306733382023273 Phases=2

New Load.load_p1ulv1962 conn=wye bus1=p1ulv1962.1.2 kV=0.2080002494301389 Vminpu=0.8 Vmaxpu=1.2 model=1 kW=9.75 kvar=0.46040600660272657 Phases=2

New Load.load_p1ulv1963 conn=wye bus1=p1ulv1962.1.2 kV=0.2080002494301389 Vminpu=0.8 Vmaxpu=1.2 model=1 kW=9.68 kvar=0.44038539037902263 Phases=2

New Load.load_p1ulv1964 conn=wye bus1=p1ulv1964.1.2 kV=0.2080002494301389 Vminpu=0.8 Vmaxpu=1.2 model=1 kW=17.25 kvar=0.46040600660272657 Phases=2

New Load.load_p1ulv1965 conn=wye bus1=p1ulv1965.1.2 kV=0.2080002494301389 Vminpu=0.8 Vmaxpu=1.2 model=1 kW=10.15 kvar=0.5394965717823037 Phases=2

New Load.load_p1ulv1966 conn=wye bus1=p1ulv1966.1.2 kV=0.2080002494301389 Vminpu=0.8 Vmaxpu=1.2 model=1 kW=17.77 kvar=0.5595731887375364 Phases=2

New Load.load_p1ulv1967 conn=wye bus1=p1ulv1966.1.2 kV=0.2080002494301389 Vminpu=0.8 Vmaxpu=1.2 model=1 kW=17.71 kvar=0.5502950620779706 Phases=2

New Load.load_p1ulv1968 conn=wye bus1=p1ulv1968.1.2 kV=0.2080002494301389 Vminpu=0.8 Vmaxpu=1.2 model=1 kW=17.6 kvar=0.5306733382023273 Phases=2

New Load.load_p1ulv1969 conn=wye bus1=p1ulv1969.1.2 kV=0.2080002494301389 Vminpu=0.8 Vmaxpu=1.2 model=1 kW=2.24002 kvar=0.45014568129695803 Phases=2

New Load.load_p1ulv1970 conn=wye bus1=p1ulv1970.1.2 kV=0.2080002494301389 Vminpu=0.8 Vmaxpu=1.2 model=1 kW=9.93 kvar=0.48960906739811333 Phases=2

New Load.load_p1ulv1971 conn=wye bus1=p1ulv1970.1.2 kV=0.2080002494301389 Vminpu=0.8 Vmaxpu=1.2 model=1 kW=9.78 kvar=0.46058636974522216 Phases=2

New Load.load_p1ulv1972 conn=wye bus1=p1ulv1972.1.2 kV=0.2080002494301389 Vminpu=0.8 Vmaxpu=1.2 model=1 kW=17.57 kvar=0.520520578499115 Phases=2

New Load.load_p1ulv1973 conn=wye bus1=p1ulv1973.1.2 kV=0.2080002494301389 Vminpu=0.8 Vmaxpu=1.2 model=1 kW=10.35 kvar=0.5802128332421591 Phases=2

New Load.load_p1ulv1974 conn=wye bus1=p1ulv1973.1.2 kV=0.2080002494301389 Vminpu=0.8 Vmaxpu=1.2 model=1 kW=10.04 kvar=0.5197487439894416 Phases=2

New Load.load_p1ulv1975 conn=wye bus1=p1ulv1975.1.2 kV=0.2080002494301389 Vminpu=0.8 Vmaxpu=1.2 model=1 kW=2.13002 kvar=0.4302849006959229 Phases=2

New Load.load_p1ulv1976 conn=wye bus1=p1ulv1976.1.2 kV=0.2080002494301389 Vminpu=0.8 Vmaxpu=1.2 model=1 kW=2.66003 kvar=0.5401421290462703 Phases=2

New Load.load_p1ulv1977 conn=wye bus1=p1ulv1977.1.2 kV=0.2080002494301389 Vminpu=0.8 Vmaxpu=1.2 model=1 kW=2.86003 kvar=0.5807538611730713 Phases=2

New Load.load_p1ulv1978 conn=wye bus1=p1ulv1978.1.2 kV=0.2080002494301389 Vminpu=0.8 Vmaxpu=1.2 model=1 kW=10.08 kvar=0.5198336154266855 Phases=2

New Load.load_p1ulv1979 conn=wye bus1=p1ulv1979.1.2 kV=0.2080002494301389 Vminpu=0.8 Vmaxpu=1.2 model=1 kW=10.09 kvar=0.5299798976370255 Phases=2

New Load.load_p1ulv1980 conn=wye bus1=p1ulv1980.1.2 kV=0.2080002494301389 Vminpu=0.8 Vmaxpu=1.2 model=1 kW=3.24003 kvar=0.6596095430888772 Phases=2

New Load.load_p1ulv1981 conn=wye bus1=p1ulv1981.1.2 kV=0.2080002494301389 Vminpu=0.8 Vmaxpu=1.2 model=1 kW=10.02 kvar=0.510393837206229 Phases=2

New Load.load_p1ulv1982 conn=wye bus1=p1ulv1982.1.2 kV=0.2080002494301389 Vminpu=0.8 Vmaxpu=1.2 model=1 kW=3.29003 kvar=0.6697886084538411 Phases=2

New Load.load_p1ulv1983 conn=wye bus1=p1ulv1983.1.2 kV=0.2080002494301389 Vminpu=0.8 Vmaxpu=1.2 model=1 kW=10.15 kvar=0.5394965717823037 Phases=2

New Load.load_p1ulv1984 conn=wye bus1=p1ulv1984.1.2 kV=0.2080002494301389 Vminpu=0.8 Vmaxpu=1.2 model=1 kW=17.45 kvar=0.500055880917707 Phases=2

New Load.load_p1ulv1985 conn=wye bus1=p1ulv1985.1.2 kV=0.2080002494301389 Vminpu=0.8 Vmaxpu=1.2 model=1 kW=2.83003 kvar=0.5702045040817287 Phases=2

New Load.load_p1ulv1986 conn=wye bus1=p1ulv1986.1.2 kV=0.2080002494301389 Vminpu=0.8 Vmaxpu=1.2 model=1 kW=2.99003 kvar=0.6102734204701886 Phases=2

New Load.load_p1ulv1987 conn=wye bus1=p1ulv1987.1.2 kV=0.2080002494301389 Vminpu=0.8 Vmaxpu=1.2 model=1 kW=17.85 kvar=0.5802128332421591 Phases=2

New Load.load_p1ulv1988 conn=wye bus1=p1ulv1987.1.2 kV=0.2080002494301389 Vminpu=0.8 Vmaxpu=1.2 model=1 kW=17.84 kvar=0.5796580042133189 Phases=2

New Load.load_p1ulv1989 conn=wye bus1=p1ulv1989.1.2 kV=0.2080002494301389 Vminpu=0.8 Vmaxpu=1.2 model=1 kW=9.98 kvar=0.499683245129122 Phases=2

New Load.load_p1ulv1990 conn=wye bus1=p1ulv1990.1.2 kV=0.2080002494301389 Vminpu=0.8 Vmaxpu=1.2 model=1 kW=10.55 kvar=0.6193350066935321 Phases=2

New Load.load_p1ulv1991 conn=wye bus1=p1ulv1991.1.2 kV=0.2080002494301389 Vminpu=0.8 Vmaxpu=1.2 model=1 kW=3.0100300000000004 kvar=0.6096359018765115 Phases=2

New Load.load_p1ulv1992 conn=wye bus1=p1ulv1992.1.2 kV=0.2080002494301389 Vminpu=0.8 Vmaxpu=1.2 model=1 kW=9.99 kvar=0.5095155441111284 Phases=2

New Load.load_p1ulv1993 conn=wye bus1=p1ulv1993.1.2 kV=0.2080002494301389 Vminpu=0.8 Vmaxpu=1.2 model=1 kW=10.98 kvar=0.71028378024263 Phases=2

New Load.load_p1ulv1994 conn=wye bus1=p1ulv1994.1.2 kV=0.2080002494301389 Vminpu=0.8 Vmaxpu=1.2 model=1 kW=3.19003 kvar=0.6494304777239135 Phases=2

New Load.load_p1ulv1995 conn=wye bus1=p1ulv1995.1.2 kV=0.2080002494301389 Vminpu=0.8 Vmaxpu=1.2 model=1 kW=10.71 kvar=0.6501428670480555 Phases=2

New Load.load_p1ulv1996 conn=wye bus1=p1ulv1996.1.2 kV=0.2080002494301389 Vminpu=0.8 Vmaxpu=1.2 model=1 kW=10.36 kvar=0.5807538611730713 Phases=2

New Load.load_p1ulv1997 conn=wye bus1=p1ulv1997.1.2 kV=0.2080002494301389 Vminpu=0.8 Vmaxpu=1.2 model=1 kW=18.42 kvar=0.6908795546178332 Phases=2

New Load.load_p1ulv1998 conn=wye bus1=p1ulv1997.1.2 kV=0.2080002494301389 Vminpu=0.8 Vmaxpu=1.2 model=1 kW=18.85 kvar=0.7797671809452545 Phases=2

New Load.load_p1ulv1999 conn=wye bus1=p1ulv1999.1.2 kV=0.2080002494301389 Vminpu=0.8 Vmaxpu=1.2 model=1 kW=17.83 kvar=0.5702045040817287 Phases=2

New Load.load_p1ulv2000 conn=wye bus1=p1ulv1999.1.2 kV=0.2080002494301389 Vminpu=0.8 Vmaxpu=1.2 model=1 kW=18.33 kvar=0.6796683639857601 Phases=2

New Load.load_p1ulv2001 conn=wye bus1=p1ulv2001.1.2 kV=0.2080002494301389 Vminpu=0.8 Vmaxpu=1.2 model=1 kW=10.69 kvar=0.6494304777239135 Phases=2

New Load.load_p1ulv2002 conn=wye bus1=p1ulv2002.1.2 kV=0.2080002494301389 Vminpu=0.8 Vmaxpu=1.2 model=1 kW=1.94002 kvar=0.38985885154138106 Phases=2

New Load.load_p1ulv2003 conn=wye bus1=p1ulv2003.1.2 kV=0.2080002494301389 Vminpu=0.8 Vmaxpu=1.2 model=1 kW=17.62 kvar=0.5306473197920009 Phases=2

New Load.load_p1ulv2004 conn=wye bus1=p1ulv2004.1.2 kV=0.2080002494301389 Vminpu=0.8 Vmaxpu=1.2 model=1 kW=2.46002 kvar=0.49952836633286324 Phases=2

New Load.load_p1ulv2005 conn=wye bus1=p1ulv2005.1.2 kV=0.2080002494301389 Vminpu=0.8 Vmaxpu=1.2 model=1 kW=9.74 kvar=0.45014568129695803 Phases=2

New Load.load_p1ulv2006 conn=wye bus1=p1ulv2006.1.2 kV=0.2080002494301389 Vminpu=0.8 Vmaxpu=1.2 model=1 kW=10.29 kvar=0.569452865461029 Phases=2

New Load.load_p1ulv2007 conn=wye bus1=p1ulv2007.1.2 kV=0.2080002494301389 Vminpu=0.8 Vmaxpu=1.2 model=1 kW=9.84 kvar=0.47024129121548364 Phases=2

New Load.load_p1ulv2008 conn=wye bus1=p1ulv2008.1.2 kV=0.2080002494301389 Vminpu=0.8 Vmaxpu=1.2 model=1 kW=17.51 kvar=0.5096833299511698 Phases=2

New Load.load_p1ulv2009 conn=wye bus1=p1ulv2009.1.2 kV=0.2080002494301389 Vminpu=0.8 Vmaxpu=1.2 model=1 kW=2.46002 kvar=0.49952836633286324 Phases=2

New Load.load_p1ulv3249 conn=wye bus1=p1ulv3249.1.2 kV=0.2080002494301389 Vminpu=0.8 Vmaxpu=1.2 model=1 kW=11.41 kvar=0.7898663736101474 Phases=2

New Load.load_p1ulv3250 conn=wye bus1=p1ulv3250.1.2 kV=0.2080002494301389 Vminpu=0.8 Vmaxpu=1.2 model=1 kW=10.24 kvar=0.5606733585797765 Phases=2

New Load.load_p1ulv3251 conn=wye bus1=p1ulv3251.1.2 kV=0.2080002494301389 Vminpu=0.8 Vmaxpu=1.2 model=1 kW=11.29 kvar=0.7696004461493017 Phases=2

New Load.load_p1ulv3252 conn=wye bus1=p1ulv3252.1.2 kV=0.2080002494301389 Vminpu=0.8 Vmaxpu=1.2 model=1 kW=10.83 kvar=0.6796683639857601 Phases=2

New Load.load_p1ulv3253 conn=wye bus1=p1ulv3253.1.2 kV=0.2080002494301389 Vminpu=0.8 Vmaxpu=1.2 model=1 kW=18.42 kvar=0.6908795546178332 Phases=2

New Load.load_p1ulv3764 conn=wye bus1=p1ulv3764.1.2 kV=0.2080002494301389 Vminpu=0.8 Vmaxpu=1.2 model=1 kW=5.37005 kvar=1.7593267452135142 Phases=2

New Load.load_p1ulv3765 conn=wye bus1=p1ulv3764.1.2 kV=0.2080002494301389 Vminpu=0.8 Vmaxpu=1.2 model=1 kW=12.0701 kvar=3.971531514903917 Phases=2

New Load.load_p1ulv3766 conn=wye bus1=p1ulv3766.1.2 kV=0.2080002494301389 Vminpu=0.8 Vmaxpu=1.2 model=1 kW=4.78005 kvar=1.569429585511589 Phases=2

New Load.load_p1ulv3767 conn=wye bus1=p1ulv3767.1.2 kV=0.2080002494301389 Vminpu=0.8 Vmaxpu=1.2 model=1 kW=4.14004 kvar=1.3592956687066866 Phases=2

New Load.load_p1ulv3768 conn=wye bus1=p1ulv3768.1.2 kV=0.2080002494301389 Vminpu=0.8 Vmaxpu=1.2 model=1 kW=16.7602 kvar=3.403303763958039 Phases=2

New Load.load_p1ulv3769 conn=wye bus1=p1ulv3769.1.2 kV=0.2080002494301389 Vminpu=0.8 Vmaxpu=1.2 model=1 kW=4.14004 kvar=1.3592956687066866 Phases=2

New Load.load_p1ulv3770 conn=wye bus1=p1ulv3770.1.2.3 kV=0.48 Vminpu=0.8 Vmaxpu=1.2 model=1 kW=48.3605 kvar=9.820018357590765 Phases=3

New Load.load_p1ulv3771 conn=wye bus1=p1ulv3771.1.2 kV=0.2080002494301389 Vminpu=0.8 Vmaxpu=1.2 model=1 kW=16.8302 kvar=5.531819226981304 Phases=2

New Load.load_p1ulv3772 conn=wye bus1=p1ulv3772.1.2.3 kV=0.48 Vminpu=0.8 Vmaxpu=1.2 model=1 kW=22.5002 kvar=7.403439357722068 Phases=3

New Load.load_p1ulv4919 conn=wye bus1=p1ulv4919.1.2 kV=0.2080002494301389 Vminpu=0.8 Vmaxpu=1.2 model=1 kW=10.63 kvar=0.6306495704677809 Phases=2

New Load.load_p1ulv4921 conn=wye bus1=p1ulv4921.1.2 kV=0.2080002494301389 Vminpu=0.8 Vmaxpu=1.2 model=1 kW=10.85 kvar=0.6802526048837334 Phases=2

New Load.load_p1ulv4922 conn=wye bus1=p1ulv4922.1.2 kV=0.2080002494301389 Vminpu=0.8 Vmaxpu=1.2 model=1 kW=11.1 kvar=0.7291334744808246 Phases=2

New Load.load_p1ulv4923 conn=wye bus1=p1ulv4923.1.2 kV=0.2080002494301389 Vminpu=0.8 Vmaxpu=1.2 model=1 kW=11.32 kvar=0.7796807647859518 Phases=2

New Load.load_p1ulv4925 conn=wye bus1=p1ulv4925.1.2 kV=0.2080002494301389 Vminpu=0.8 Vmaxpu=1.2 model=1 kW=4.01004 kvar=0.810067352976347 Phases=2

New Load.load_p1ulv4926 conn=wye bus1=p1ulv4926.1.2 kV=0.2080002494301389 Vminpu=0.8 Vmaxpu=1.2 model=1 kW=11.83 kvar=0.879252122891664 Phases=2

New Load.load_p1ulv4927 conn=wye bus1=p1ulv4927.1.2 kV=0.2080002494301389 Vminpu=0.8 Vmaxpu=1.2 model=1 kW=11.05 kvar=0.7208663675971405 Phases=2

New Load.load_p1ulv4928 conn=wye bus1=p1ulv4928.1.2 kV=0.2080002494301389 Vminpu=0.8 Vmaxpu=1.2 model=1 kW=4.55005 kvar=0.9191546616517607 Phases=2

New Load.load_p1ulv4929 conn=wye bus1=p1ulv4929.1.2 kV=0.2080002494301389 Vminpu=0.8 Vmaxpu=1.2 model=1 kW=19.8101 kvar=0.9792362671748885 Phases=2

New Load.load_p1ulv4931 conn=wye bus1=p1ulv4931.1.2 kV=0.2080002494301389 Vminpu=0.8 Vmaxpu=1.2 model=1 kW=18.97 kvar=0.8102961810428216 Phases=2

New Load.load_p1ulv4932 conn=wye bus1=p1ulv4932.1.2 kV=0.2080002494301389 Vminpu=0.8 Vmaxpu=1.2 model=1 kW=4.41004 kvar=0.900101402062973 Phases=2

New Load.load_p1ulv4933 conn=wye bus1=p1ulv4933.1.2 kV=0.2080002494301389 Vminpu=0.8 Vmaxpu=1.2 model=1 kW=11.17 kvar=0.7394527047982206 Phases=2

New Load.load_p1ulv4935 conn=wye bus1=p1ulv4935.1.2 kV=0.2080002494301389 Vminpu=0.8 Vmaxpu=1.2 model=1 kW=4.76005 kvar=0.9690572018099246 Phases=2

New Load.load_p1ulv4936 conn=wye bus1=p1ulv4936.1.2 kV=0.2080002494301389 Vminpu=0.8 Vmaxpu=1.2 model=1 kW=10.98 kvar=0.71028378024263 Phases=2

New Load.load_p1ulv4937 conn=wye bus1=p1ulv4937.1.2 kV=0.2080002494301389 Vminpu=0.8 Vmaxpu=1.2 model=1 kW=12.17 kvar=0.9507348841529898 Phases=2

New Load.load_p1ulv4938 conn=wye bus1=p1ulv4938.1.2 kV=0.2080002494301389 Vminpu=0.8 Vmaxpu=1.2 model=1 kW=11.4 kvar=0.7898939222381405 Phases=2

New Load.load_p1ulv4939 conn=wye bus1=p1ulv4939.1.2 kV=0.2080002494301389 Vminpu=0.8 Vmaxpu=1.2 model=1 kW=17.85 kvar=0.5802128332421591 Phases=2

New Load.load_p1ulv4941 conn=wye bus1=p1ulv4941.1.2 kV=0.2080002494301389 Vminpu=0.8 Vmaxpu=1.2 model=1 kW=10.74 kvar=0.6596095430888772 Phases=2

New Load.load_p1ulv4942 conn=wye bus1=p1ulv4942.1.2 kV=0.2080002494301389 Vminpu=0.8 Vmaxpu=1.2 model=1 kW=10.9 kvar=0.6904055379154336 Phases=2

New Load.load_p1ulv4943 conn=wye bus1=p1ulv4943.1.2 kV=0.2080002494301389 Vminpu=0.8 Vmaxpu=1.2 model=1 kW=11.03 kvar=0.7204909600226704 Phases=2

New Load.load_p1ulv4944 conn=wye bus1=p1ulv4944.1.2 kV=0.2080002494301389 Vminpu=0.8 Vmaxpu=1.2 model=1 kW=11.39 kvar=0.789906312212702 Phases=2

New Load.load_p1ulv4945 conn=wye bus1=p1ulv4945.1.2 kV=0.2080002494301389 Vminpu=0.8 Vmaxpu=1.2 model=1 kW=18.24 kvar=0.6596095430888772 Phases=2

New Load.load_p1ulv4946 conn=wye bus1=p1ulv4946.1.2 kV=0.2080002494301389 Vminpu=0.8 Vmaxpu=1.2 model=1 kW=12.71 kvar=1.0606687900945995 Phases=2

New Load.load_p1ulv4947 conn=wye bus1=p1ulv4947.1.2 kV=0.2080002494301389 Vminpu=0.8 Vmaxpu=1.2 model=1 kW=10.67 kvar=0.6403771062023346 Phases=2

New Load.load_p1ulv4949 conn=wye bus1=p1ulv4949.1.2 kV=0.2080002494301389 Vminpu=0.8 Vmaxpu=1.2 model=1 kW=3.58004 kvar=0.7306960987749602 Phases=2

New Load.load_p1ulv4952 conn=wye bus1=p1ulv4952.1.2 kV=0.2080002494301389 Vminpu=0.8 Vmaxpu=1.2 model=1 kW=10.82 kvar=0.6706785752516337 Phases=2

New Load.load_p1ulv4954 conn=wye bus1=p1ulv4954.1.2 kV=0.2080002494301389 Vminpu=0.8 Vmaxpu=1.2 model=1 kW=11.74 kvar=0.8609768434346036 Phases=2

New Load.load_p1ulv4955 conn=wye bus1=p1ulv4955.1.2 kV=0.2080002494301389 Vminpu=0.8 Vmaxpu=1.2 model=1 kW=11.25 kvar=0.7595136983594827 Phases=2

New Load.load_p1ulv4957 conn=wye bus1=p1ulv4957.1.2 kV=0.2080002494301389 Vminpu=0.8 Vmaxpu=1.2 model=1 kW=10.27 kvar=0.5595731887375364 Phases=2

New Load.load_p1ulv4958 conn=wye bus1=p1ulv4958.1.2 kV=0.2080002494301389 Vminpu=0.8 Vmaxpu=1.2 model=1 kW=5.810060000000001 kvar=1.1797830018032032 Phases=2

New Load.load_p1ulv4959 conn=wye bus1=p1ulv4959.1.2 kV=0.2080002494301389 Vminpu=0.8 Vmaxpu=1.2 model=1 kW=10.46 kvar=0.5995091605836256 Phases=2

New Load.load_p1ulv4961 conn=wye bus1=p1ulv4961.1.2 kV=0.2080002494301389 Vminpu=0.8 Vmaxpu=1.2 model=1 kW=11.41 kvar=0.7898663736101474 Phases=2

New Load.load_p1ulv4963 conn=wye bus1=p1ulv4963.1.2 kV=0.2080002494301389 Vminpu=0.8 Vmaxpu=1.2 model=1 kW=21.2701 kvar=1.269905510217453 Phases=2

New Load.load_p1ulv4965 conn=wye bus1=p1ulv4965.1.2 kV=0.2080002494301389 Vminpu=0.8 Vmaxpu=1.2 model=1 kW=11.31 kvar=0.769665394243948 Phases=2

New Load.load_p1ulv4967 conn=wye bus1=p1ulv4967.1.2 kV=0.2080002494301389 Vminpu=0.8 Vmaxpu=1.2 model=1 kW=11.07 kvar=0.7193043493362031 Phases=2

New Load.load_p1ulv4968 conn=wye bus1=p1ulv4968.1.2 kV=0.2080002494301389 Vminpu=0.8 Vmaxpu=1.2 model=1 kW=3.25003 kvar=0.659946738820333 Phases=2

New Load.load_p1ulv4969 conn=wye bus1=p1ulv4969.1.2 kV=0.2080002494301389 Vminpu=0.8 Vmaxpu=1.2 model=1 kW=11.46 kvar=0.7999668632932473 Phases=2

New Load.load_p1ulv4970 conn=wye bus1=p1ulv4970.1.2 kV=0.2080002494301389 Vminpu=0.8 Vmaxpu=1.2 model=1 kW=11.29 kvar=0.7696004461493017 Phases=2

New Load.load_p1ulv4971 conn=wye bus1=p1ulv4971.1.2 kV=0.2080002494301389 Vminpu=0.8 Vmaxpu=1.2 model=1 kW=12.8 kvar=1.0789911077515342 Phases=2

New Load.load_p1ulv4972 conn=wye bus1=p1ulv4972.1.2 kV=0.2080002494301389 Vminpu=0.8 Vmaxpu=1.2 model=1 kW=5.460050000000001 kvar=1.1087104399946952 Phases=2

New Load.load_p1ulv4973 conn=wye bus1=p1ulv4973.1.2 kV=0.2080002494301389 Vminpu=0.8 Vmaxpu=1.2 model=1 kW=10.93 kvar=0.70007864149034 Phases=2

New Load.load_p1ulv4974 conn=wye bus1=p1ulv4974.1.2.3 kV=0.48 Vminpu=0.8 Vmaxpu=1.2 model=1 kW=20.140199999999997 kvar=4.089642036900973 Phases=3

New Load.load_p1ulv4975 conn=wye bus1=p1ulv4975.1.2 kV=0.2080002494301389 Vminpu=0.8 Vmaxpu=1.2 model=1 kW=8.230080000000001 kvar=1.6711890217107062 Phases=2

New Load.load_p1ulv4976 conn=wye bus1=p1ulv4976.1.2 kV=0.2080002494301389 Vminpu=0.8 Vmaxpu=1.2 model=1 kW=14.6201 kvar=1.4383238715589617 Phases=2

New Load.load_p1ulv4977 conn=wye bus1=p1ulv4977.1.2 kV=0.2080002494301389 Vminpu=0.8 Vmaxpu=1.2 model=1 kW=4.37004 kvar=0.8896584561501336 Phases=2

New Load.load_p1ulv4978 conn=wye bus1=p1ulv4978.1.2 kV=0.2080002494301389 Vminpu=0.8 Vmaxpu=1.2 model=1 kW=4.36004 kvar=0.8807707807580453 Phases=2

New Load.load_p1ulv4979 conn=wye bus1=p1ulv4979.1.2 kV=0.2080002494301389 Vminpu=0.8 Vmaxpu=1.2 model=1 kW=22.3801 kvar=1.498587129585196 Phases=2

New Load.load_p1ulv4980 conn=wye bus1=p1ulv4980.1.2 kV=0.2080002494301389 Vminpu=0.8 Vmaxpu=1.2 model=1 kW=3.14003 kvar=0.6392514123589496 Phases=2

New Load.load_p1ulv4981 conn=wye bus1=p1ulv4981.1.2 kV=0.2080002494301389 Vminpu=0.8 Vmaxpu=1.2 model=1 kW=12.18 kvar=0.9503246847001716 Phases=2

New Load.load_p1ulv4982 conn=wye bus1=p1ulv4982.1.2 kV=0.2080002494301389 Vminpu=0.8 Vmaxpu=1.2 model=1 kW=11.91 kvar=0.900101402062973 Phases=2

New Load.load_p1ulv4983 conn=wye bus1=p1ulv4983.1.2 kV=0.2080002494301389 Vminpu=0.8 Vmaxpu=1.2 model=1 kW=20.1 kvar=1.0409343578723245 Phases=2

New Load.load_p1ulv4984 conn=wye bus1=p1ulv4984.1.2 kV=0.2080002494301389 Vminpu=0.8 Vmaxpu=1.2 model=1 kW=10.84 kvar=0.679967673818805 Phases=2

New Load.load_p1ulv4985 conn=wye bus1=p1ulv4985.1.2 kV=0.2080002494301389 Vminpu=0.8 Vmaxpu=1.2 model=1 kW=2.75003 kvar=0.5598547025122315 Phases=2

New Load.load_p1ulv4986 conn=wye bus1=p1ulv4986.1.2 kV=0.2080002494301389 Vminpu=0.8 Vmaxpu=1.2 model=1 kW=20.3201 kvar=1.0802822275059345 Phases=2

New Load.load_p1ulv4988 conn=wye bus1=p1ulv4988.1.2 kV=0.2080002494301389 Vminpu=0.8 Vmaxpu=1.2 model=1 kW=10.84 kvar=0.679967673818805 Phases=2

New Load.load_p1ulv4989 conn=wye bus1=p1ulv4989.1.2 kV=0.2080002494301389 Vminpu=0.8 Vmaxpu=1.2 model=1 kW=11.05 kvar=0.7208663675971405 Phases=2

New Load.load_p1ulv4991 conn=wye bus1=p1ulv4991.1.2 kV=0.2080002494301389 Vminpu=0.8 Vmaxpu=1.2 model=1 kW=13.7501 kvar=1.269128812482165 Phases=2

New Load.load_p1ulv4993 conn=wye bus1=p1ulv4993.1.2 kV=0.2080002494301389 Vminpu=0.8 Vmaxpu=1.2 model=1 kW=11.69 kvar=0.8508239104029033 Phases=2

New Load.load_p1ulv4994 conn=wye bus1=p1ulv4994.1.2 kV=0.2080002494301389 Vminpu=0.8 Vmaxpu=1.2 model=1 kW=4.670050000000001 kvar=0.9507348841529898 Phases=2

New Load.load_p1ulv4995 conn=wye bus1=p1ulv4995.1.2 kV=0.2080002494301389 Vminpu=0.8 Vmaxpu=1.2 model=1 kW=10.87 kvar=0.6807790649347335 Phases=2

New Load.load_p1ulv4997 conn=wye bus1=p1ulv4997.1.2 kV=0.2080002494301389 Vminpu=0.8 Vmaxpu=1.2 model=1 kW=10.87 kvar=0.6807790649347335 Phases=2

New Load.load_p1ulv4999 conn=wye bus1=p1ulv4999.1.2 kV=0.2080002494301389 Vminpu=0.8 Vmaxpu=1.2 model=1 kW=10.8 kvar=0.6700996718520332 Phases=2

New Load.load_p1ulv5009 conn=wye bus1=p1ulv5009.1.2 kV=0.2080002494301389 Vminpu=0.8 Vmaxpu=1.2 model=1 kW=10.87 kvar=0.6895858945393315 Phases=2

New Load.load_p1ulv5010 conn=wye bus1=p1ulv5010.1.2 kV=0.2080002494301389 Vminpu=0.8 Vmaxpu=1.2 model=1 kW=18.46 kvar=0.7007765735124853 Phases=2

New Load.load_p1ulv5014 conn=wye bus1=p1ulv5014.1.2 kV=0.2080002494301389 Vminpu=0.8 Vmaxpu=1.2 model=1 kW=3.47003 kvar=0.6991539790386396 Phases=2

New Load.load_p1ulv5025 conn=wye bus1=p1ulv5025.1.2 kV=0.2080002494301389 Vminpu=0.8 Vmaxpu=1.2 model=1 kW=10.8 kvar=0.6700996718520332 Phases=2

New Load.load_p1ulv5029 conn=wye bus1=p1ulv5029.1.2.3 kV=0.48 Vminpu=0.8 Vmaxpu=1.2 model=1 kW=22.8002 kvar=4.629778074187425 Phases=3

New Load.load_p1ulv5031 conn=wye bus1=p1ulv5031.1.2 kV=0.2080002494301389 Vminpu=0.8 Vmaxpu=1.2 model=1 kW=10.86 kvar=0.6805230909267135 Phases=2

New Load.load_p1ulv5034 conn=wye bus1=p1ulv5034.1.2 kV=0.2080002494301389 Vminpu=0.8 Vmaxpu=1.2 model=1 kW=3.06003 kvar=0.6197626431693976 Phases=2

New Load.load_p1ulv5037 conn=wye bus1=p1ulv5037.1.2 kV=0.2080002494301389 Vminpu=0.8 Vmaxpu=1.2 model=1 kW=11.04 kvar=0.7206859710917335 Phases=2

New Load.load_p1ulv5038 conn=wye bus1=p1ulv5038.1.2 kV=0.2080002494301389 Vminpu=0.8 Vmaxpu=1.2 model=1 kW=3.7300400000000002 kvar=0.7593664194785962 Phases=2

New Load.load_p1ulv5040 conn=wye bus1=p1ulv5040.1.2 kV=0.2080002494301389 Vminpu=0.8 Vmaxpu=1.2 model=1 kW=12.78 kvar=1.069394007270052 Phases=2

New Load.load_p1ulv5043 conn=wye bus1=p1ulv5043.1.2 kV=0.2080002494301389 Vminpu=0.8 Vmaxpu=1.2 model=1 kW=10.97 kvar=0.6991539790386396 Phases=2

New Load.load_p1ulv5045 conn=wye bus1=p1ulv5045.1.2 kV=0.2080002494301389 Vminpu=0.8 Vmaxpu=1.2 model=1 kW=7.98008 kvar=2.620092602953801 Phases=2

New Load.load_p1ulv5046 conn=wye bus1=p1ulv5046.1.2 kV=0.2080002494301389 Vminpu=0.8 Vmaxpu=1.2 model=1 kW=4.14004 kvar=1.3592956687066866 Phases=2

New Load.load_p1ulv5814 conn=wye bus1=p1ulv5814.1.2 kV=0.2080002494301389 Vminpu=0.8 Vmaxpu=1.2 model=1 kW=13.6001 kvar=1.2386700133870643 Phases=2

New Load.load_p1ulv5827 conn=wye bus1=p1ulv5827.1.2 kV=0.2080002494301389 Vminpu=0.8 Vmaxpu=1.2 model=1 kW=2.46002 kvar=0.49952836633286324 Phases=2

New Load.load_p1ulv5829 conn=wye bus1=p1ulv5829.1.2 kV=0.2080002494301389 Vminpu=0.8 Vmaxpu=1.2 model=1 kW=9.74 kvar=0.45014568129695803 Phases=2

New Load.load_p1ulv5835 conn=wye bus1=p1ulv5835.1.2 kV=0.2080002494301389 Vminpu=0.8 Vmaxpu=1.2 model=1 kW=10.96 kvar=0.7007765735124853 Phases=2

New Load.load_p1ulv5836 conn=wye bus1=p1ulv5836.1.2 kV=0.2080002494301389 Vminpu=0.8 Vmaxpu=1.2 model=1 kW=11.35 kvar=0.7797671809452545 Phases=2

New Load.load_p1ulv5837 conn=wye bus1=p1ulv5837.1.2 kV=0.2080002494301389 Vminpu=0.8 Vmaxpu=1.2 model=1 kW=11.63 kvar=0.840798942398307 Phases=2

New Load.load_p1ulv5838 conn=wye bus1=p1ulv5838.1.2 kV=0.2080002494301389 Vminpu=0.8 Vmaxpu=1.2 model=1 kW=11.37 kvar=0.7898859035382418 Phases=2

New Load.load_p1ulv5839 conn=wye bus1=p1ulv5839.1.2 kV=0.2080002494301389 Vminpu=0.8 Vmaxpu=1.2 model=1 kW=10.84 kvar=0.679967673818805 Phases=2

New Load.load_p1ulv5840 conn=wye bus1=p1ulv5840.1.2 kV=0.2080002494301389 Vminpu=0.8 Vmaxpu=1.2 model=1 kW=11.06 kvar=0.7191629458284491 Phases=2

New Load.load_p1ulv5841 conn=wye bus1=p1ulv5841.1.2 kV=0.2080002494301389 Vminpu=0.8 Vmaxpu=1.2 model=1 kW=1.56002 kvar=0.32002595041741205 Phases=2

New Load.load_p1ulv5842 conn=wye bus1=p1ulv5842.1.2 kV=0.2080002494301389 Vminpu=0.8 Vmaxpu=1.2 model=1 kW=10.67 kvar=0.6403771062023346 Phases=2

New Load.load_p1ulv5843 conn=wye bus1=p1ulv5843.1.2 kV=0.2080002494301389 Vminpu=0.8 Vmaxpu=1.2 model=1 kW=5.20005 kvar=1.061344635376904 Phases=2

New Load.load_p1ulv5844 conn=wye bus1=p1ulv5844.1.2 kV=0.2080002494301389 Vminpu=0.8 Vmaxpu=1.2 model=1 kW=11.17 kvar=0.7394527047982206 Phases=2

New Load.load_p1ulv5845 conn=wye bus1=p1ulv5845.1.2 kV=0.2080002494301389 Vminpu=0.8 Vmaxpu=1.2 model=1 kW=25.32 kvar=0.5696736784206362 Phases=2

New Load.load_p1ulv5846 conn=wye bus1=p1ulv5846.1.2 kV=0.2080002494301389 Vminpu=0.8 Vmaxpu=1.2 model=1 kW=10.23 kvar=0.5500561486197115 Phases=2

New Load.load_p1ulv5847 conn=wye bus1=p1ulv5847.1.2 kV=0.2080002494301389 Vminpu=0.8 Vmaxpu=1.2 model=1 kW=11.27 kvar=0.7694756260336619 Phases=2

New Load.load_p1ulv5848 conn=wye bus1=p1ulv5848.1.2 kV=0.2080002494301389 Vminpu=0.8 Vmaxpu=1.2 model=1 kW=9.89 kvar=0.4802890961747464 Phases=2

New Load.load_p1ulv5849 conn=wye bus1=p1ulv5849.1.2 kV=0.2080002494301389 Vminpu=0.8 Vmaxpu=1.2 model=1 kW=11.61 kvar=0.8302683323425464 Phases=2

New Load.load_p1ulv5850 conn=wye bus1=p1ulv5850.1.2 kV=0.2080002494301389 Vminpu=0.8 Vmaxpu=1.2 model=1 kW=10.86 kvar=0.6805230909267135 Phases=2

New Load.load_p1ulv5851 conn=wye bus1=p1ulv5851.1.2 kV=0.2080002494301389 Vminpu=0.8 Vmaxpu=1.2 model=1 kW=4.41004 kvar=0.900101402062973 Phases=2

New Load.load_p1ulv5852 conn=wye bus1=p1ulv5852.1.2 kV=0.2080002494301389 Vminpu=0.8 Vmaxpu=1.2 model=1 kW=12.19 kvar=0.9498984600139976 Phases=2

New Load.load_p1ulv5853 conn=wye bus1=p1ulv5853.1.2 kV=0.2080002494301389 Vminpu=0.8 Vmaxpu=1.2 model=1 kW=9.65 kvar=0.43994369930755917 Phases=2

New Load.load_p1ulv5855 conn=wye bus1=p1ulv5855.1.2 kV=0.2080002494301389 Vminpu=0.8 Vmaxpu=1.2 model=1 kW=4.04004 kvar=0.8203651113078028 Phases=2

New Load.load_p1ulv5856 conn=wye bus1=p1ulv5856.1.2 kV=0.2080002494301389 Vminpu=0.8 Vmaxpu=1.2 model=1 kW=10.49 kvar=0.6102734204701886 Phases=2

New Load.load_p1ulv5857 conn=wye bus1=p1ulv5857.1.2 kV=0.2080002494301389 Vminpu=0.8 Vmaxpu=1.2 model=1 kW=11.82 kvar=0.8794793907851697 Phases=2

New Load.load_p1ulv5858 conn=wye bus1=p1ulv5858.1.2 kV=0.2080002494301389 Vminpu=0.8 Vmaxpu=1.2 model=1 kW=2.52003 kvar=0.510393837206229 Phases=2

New Load.load_p1ulv5859 conn=wye bus1=p1ulv5859.1.2 kV=0.2080002494301389 Vminpu=0.8 Vmaxpu=1.2 model=1 kW=10.28 kvar=0.5703014980185626 Phases=2

New Load.load_p1ulv8635 conn=wye bus1=p1ulv8635.1.2.3 kV=0.48 Vminpu=0.8 Vmaxpu=1.2 model=1 kW=171.942 kvar=34.914312226731965 Phases=3

New Load.load_p1ulv8636 conn=wye bus1=p1ulv8636.1.2.3 kV=0.48 Vminpu=0.8 Vmaxpu=1.2 model=1 kW=91.59089999999999 kvar=18.598325480263025 Phases=3

New Load.load_p1ulv8637 conn=wye bus1=p1ulv8637.1.2 kV=0.2080002494301389 Vminpu=0.8 Vmaxpu=1.2 model=1 kW=11.72 kvar=0.8591212600552419 Phases=2

New Load.load_p1ulv8638 conn=wye bus1=p1ulv8638.1.2 kV=0.2080002494301389 Vminpu=0.8 Vmaxpu=1.2 model=1 kW=12.35 kvar=0.9797575997503596 Phases=2

New Load.load_p1ulv8639 conn=wye bus1=p1ulv8639.1.2 kV=0.2080002494301389 Vminpu=0.8 Vmaxpu=1.2 model=1 kW=9.42 kvar=0.38987668959050087 Phases=2

New Load.load_p1ulv8640 conn=wye bus1=p1ulv8640.1.2.3 kV=0.48 Vminpu=0.8 Vmaxpu=1.2 model=1 kW=100.891 kvar=20.486791330025326 Phases=3

New Load.load_p1ulv8641 conn=wye bus1=p1ulv8641.1.2 kV=0.2080002494301389 Vminpu=0.8 Vmaxpu=1.2 model=1 kW=19.27 kvar=0.869300325420206 Phases=2

New Load.load_p1ulv8642 conn=wye bus1=p1ulv8642.1.2 kV=0.2080002494301389 Vminpu=0.8 Vmaxpu=1.2 model=1 kW=11.66 kvar=0.8403688220256462 Phases=2

New Load.load_p1ulv8643 conn=wye bus1=p1ulv8643.1.2 kV=0.2080002494301389 Vminpu=0.8 Vmaxpu=1.2 model=1 kW=11.61 kvar=0.8410090147543001 Phases=2

New Load.load_p1ulv8644 conn=wye bus1=p1ulv8644.1.2.3 kV=0.48 Vminpu=0.8 Vmaxpu=1.2 model=1 kW=37.95040000000001 kvar=7.706157394524718 Phases=3

New Load.load_p1ulv8645 conn=wye bus1=p1ulv8645.1.2 kV=0.2080002494301389 Vminpu=0.8 Vmaxpu=1.2 model=1 kW=10.97 kvar=0.6991539790386396 Phases=2

New Load.load_p1ulv8646 conn=wye bus1=p1ulv8646.1.2 kV=0.2080002494301389 Vminpu=0.8 Vmaxpu=1.2 model=1 kW=11.01 kvar=0.7109053401536299 Phases=2

New Load.load_p1ulv8647 conn=wye bus1=p1ulv8647.1.2 kV=0.2080002494301389 Vminpu=0.8 Vmaxpu=1.2 model=1 kW=10.93 kvar=0.70007864149034 Phases=2

New Load.load_p1ulv10129 conn=wye bus1=p1ulv10129.1.2.3 kV=0.48 Vminpu=0.8 Vmaxpu=1.2 model=1 kW=29.250300000000003 kvar=5.939526741142816 Phases=3

New Load.load_p1ulv10130 conn=wye bus1=p1ulv10130.1.2.3 kV=0.48 Vminpu=0.8 Vmaxpu=1.2 model=1 kW=110.68100000000001 kvar=22.47473561763223 Phases=3

New Load.load_p1ulv10131 conn=wye bus1=p1ulv10131.1.2 kV=0.2080002494301389 Vminpu=0.8 Vmaxpu=1.2 model=1 kW=3.83004 kvar=0.7797245502085238 Phases=2

New Load.load_p1ulv10132 conn=wye bus1=p1ulv10132.1.2 kV=0.2080002494301389 Vminpu=0.8 Vmaxpu=1.2 model=1 kW=3.0700300000000005 kvar=0.620176126836135 Phases=2

New Load.load_p1ulv10133 conn=wye bus1=p1ulv10133.1.2 kV=0.2080002494301389 Vminpu=0.8 Vmaxpu=1.2 model=1 kW=5.26005 kvar=1.070847855459563 Phases=2

New Load.load_p1ulv10134 conn=wye bus1=p1ulv10134.1.2 kV=0.2080002494301389 Vminpu=0.8 Vmaxpu=1.2 model=1 kW=3.42003 kvar=0.6908795546178332 Phases=2

New Load.load_p1ulv10135 conn=wye bus1=p1ulv10135.1.2 kV=0.2080002494301389 Vminpu=0.8 Vmaxpu=1.2 model=1 kW=3.46003 kvar=0.7007765735124853 Phases=2

New Load.load_p1ulv10136 conn=wye bus1=p1ulv10136.1.2 kV=0.2080002494301389 Vminpu=0.8 Vmaxpu=1.2 model=1 kW=3.24003 kvar=0.6596095430888772 Phases=2

New Load.load_p1ulv10138 conn=wye bus1=p1ulv10138.1.2 kV=0.2080002494301389 Vminpu=0.8 Vmaxpu=1.2 model=1 kW=4.26004 kvar=0.8694859858061031 Phases=2

New Load.load_p1ulv10139 conn=wye bus1=p1ulv10139.1.2 kV=0.2080002494301389 Vminpu=0.8 Vmaxpu=1.2 model=1 kW=3.90004 kvar=0.7898939222381405 Phases=2

New Load.load_p1ulv10140 conn=wye bus1=p1ulv10140.1.2 kV=0.2080002494301389 Vminpu=0.8 Vmaxpu=1.2 model=1 kW=2.38002 kvar=0.47953488966710467 Phases=2

New Load.load_p1ulv10141 conn=wye bus1=p1ulv10141.1.2 kV=0.2080002494301389 Vminpu=0.8 Vmaxpu=1.2 model=1 kW=3.58004 kvar=0.7306960987749602 Phases=2

New Load.load_p1ulv10142 conn=wye bus1=p1ulv10142.1.2 kV=0.2080002494301389 Vminpu=0.8 Vmaxpu=1.2 model=1 kW=4.35004 kvar=0.8810345938741143 Phases=2

New Load.load_p1ulv10144 conn=wye bus1=p1ulv10144.1.2 kV=0.2080002494301389 Vminpu=0.8 Vmaxpu=1.2 model=1 kW=3.38003 kvar=0.6898735027380501 Phases=2

New Load.load_p1ulv10147 conn=wye bus1=p1ulv10147.1.2 kV=0.2080002494301389 Vminpu=0.8 Vmaxpu=1.2 model=1 kW=4.62005 kvar=0.940555818788026 Phases=2

New Load.load_p1ulv10148 conn=wye bus1=p1ulv10148.1.2 kV=0.2080002494301389 Vminpu=0.8 Vmaxpu=1.2 model=1 kW=3.7100400000000002 kvar=0.7494644148777485 Phases=2

New Load.load_p1ulv10149 conn=wye bus1=p1ulv10149.1.2 kV=0.2080002494301389 Vminpu=0.8 Vmaxpu=1.2 model=1 kW=3.45003 kvar=0.7005584709471337 Phases=2

New Load.load_p1ulv10150 conn=wye bus1=p1ulv10150.1.2 kV=0.2080002494301389 Vminpu=0.8 Vmaxpu=1.2 model=1 kW=3.39003 kvar=0.6901467391837689 Phases=2