New Line.l(r:p1ulv99-udm233) Units=km Length=0.00812564 bus1=udm233.1.2 bus2=p1ulv99.1.2 switch=n enabled=y phases=2 Linecode=1P_OH_AL_2/0_Rucina_0_416_0_2_2

New Line.l(r:p1ulv54932-udm236) Units=km Length=0.011861000000000002 bus1=udm236.1.2 bus2=p1ulv54932.1.2 switch=n enabled=y phases=2 Linecode=1P_OH_AL_2/0_Rucina_0_416_0_2_2

New Line.l(r:p1ulv51369-udm235) Units=km Length=0.0137694 bus1=udm235.1.2 bus2=p1ulv51369.1.2 switch=n enabled=y phases=2 Linecode=1P_OH_AL_2/0_Rucina_0_416_0_2_2

New Line.l(r:udm235-udm236) Units=km Length=0.0241378 bus1=udm236.1.2 bus2=udm235.1.2 switch=n enabled=y phases=2 Linecode=1P_OH_AL_2/0_Rucina_0_416_0_2_2

New Line.l(r:udm233-udm236) Units=km Length=0.0328103 bus1=udm233.1.2 bus2=udm236.1.2 switch=n enabled=y phases=2 Linecode=1P_OH_AL_4/0_Zuzara_0_416_0_2_2

New Line.l(r:udm233-udt83lv) Units=km Length=0.0355999 bus1=udt83lv.1.2 bus2=udm233.1.2 switch=n enabled=y phases=2 Linecode=1P_OH_AL_4/0_Zuzara_0_416_0_2_2

New Line.l(r:p1ulv41538-udm234) Units=km Length=0.015617100000000002 bus1=udm234.1.2 bus2=p1ulv41538.1.2 switch=n enabled=y phases=2 Linecode=1P_OH_AL_2/0_Rucina_0_416_0_2_2

New Line.l(r:p1ulv61125-udm234) Units=km Length=0.0168732 bus1=udm234.1.2 bus2=p1ulv61125.1.2 switch=n enabled=y phases=2 Linecode=1P_OH_AL_2/0_Rucina_0_416_0_2_2

New Line.l(r:udm234-udt83lv) Units=km Length=0.0194241 bus1=udt83lv.1.2 bus2=udm234.1.2 switch=n enabled=y phases=2 Linecode=1P_OH_AL_2/0_Rucina_0_416_0_2_2

New Line.l(r:p1ulv103-udt86lv) Units=km Length=0.0188073 bus1=udt86lv.1.2 bus2=p1ulv103.1.2 switch=n enabled=y phases=2 Linecode=1P_OH_AL_2/0_Rucina_0_416_0_2_2

New Line.l(r:p1ulv104-udt86lv) Units=km Length=0.0190377 bus1=udt86lv.1.2 bus2=p1ulv104.1.2 switch=n enabled=y phases=2 Linecode=1P_OH_AL_2/0_Rucina_0_416_0_2_2

New Line.l(r:p1ulv57072-udt86lv) Units=km Length=0.0180634 bus1=udt86lv.1.2 bus2=p1ulv57072.1.2 switch=n enabled=y phases=2 Linecode=1P_OH_AL_2/0_Rucina_0_416_0_2_2

New Line.l(r:p1ulv102-udm256) Units=km Length=0.0182182 bus1=udm256.1.2 bus2=p1ulv102.1.2 switch=n enabled=y phases=2 Linecode=1P_OH_AL_2/0_Rucina_0_416_0_2_2

New Line.l(r:p1ulv4454-udm256) Units=km Length=0.0153626 bus1=udm256.1.2 bus2=p1ulv4454.1.2 switch=n enabled=y phases=2 Linecode=1P_OH_AL_2/0_Rucina_0_416_0_2_2

New Line.l(r:p1ulv48701-udm256) Units=km Length=0.0168788 bus1=udm256.1.2 bus2=p1ulv48701.1.2 switch=n enabled=y phases=2 Linecode=1P_OH_AL_2/0_Rucina_0_416_0_2_2

New Line.l(r:udm256-udt86lv) Units=km Length=0.0194241 bus1=udt86lv.1.2 bus2=udm256.1.2 switch=n enabled=y phases=2 Linecode=1P_OH_AL_2/0_Rucina_0_416_0_2_2

New Line.l(r:p1ulv107-udm260) Units=km Length=0.0265794 bus1=udm260.1.2 bus2=p1ulv107.1.2 switch=n enabled=y phases=2 Linecode=1P_OH_AL_2/0_Rucina_0_416_0_2_2

New Line.l(r:p1ulv57557-udm260) Units=km Length=0.017050900000000004 bus1=udm260.1.2 bus2=p1ulv57557.1.2 switch=n enabled=y phases=2 Linecode=1P_OH_AL_2/0_Rucina_0_416_0_2_2

New Line.l(r:p1ulv106-udm259) Units=km Length=0.0310217 bus1=udm259.1.2 bus2=p1ulv106.1.2 switch=n enabled=y phases=2 Linecode=1P_OH_AL_4/0_Zuzara_0_416_0_2_2

New Line.l(r:udm259-udm260) Units=km Length=0.019416 bus1=udm260.1.2 bus2=udm259.1.2 switch=n enabled=y phases=2 Linecode=1P_OH_AL_2/0_Rucina_0_416_0_2_2

New Line.l(r:udm260-udt86lv) Units=km Length=0.0194241 bus1=udt86lv.1.2 bus2=udm260.1.2 switch=n enabled=y phases=2 Linecode=1P_OH_AL_2/0_Rucina_0_416_0_2_2

New Line.l(r:p1ulv2359-udt283lv) Units=km Length=0.0189772 bus1=udt283lv.1.2 bus2=p1ulv2359.1.2 switch=n enabled=y phases=2 Linecode=1P_UG_AL_1/0_Brenau_0_416_0_2_2

New Line.l(r:p1ulv431-udm1027) Units=km Length=0.0233452 bus1=udm1027.1.2 bus2=p1ulv431.1.2 switch=n enabled=y phases=2 Linecode=1P_UG_AL_1/0_Brenau_0_416_0_2_2

New Line.l(r:p1ulv430-udm1026) Units=km Length=0.025890200000000002 bus1=udm1026.1.2 bus2=p1ulv430.1.2 switch=n enabled=y phases=2 Linecode=1P_UG_AL_1/0_Brenau_0_416_0_2_2

New Line.l(r:p1ulv429-udm1025) Units=km Length=0.029020600000000004 bus1=udm1025.1.2 bus2=p1ulv429.1.2 switch=n enabled=y phases=2 Linecode=1P_UG_AL_1/0_Brenau_0_416_0_2_2

New Line.l(r:udm1025-udm1026) Units=km Length=0.009623750000000002 bus1=udm1026.1.2 bus2=udm1025.1.2 switch=n enabled=y phases=2 Linecode=1P_UG_AL_1/0_Brenau_0_416_0_2_2

New Line.l(r:udm1026-udm1027) Units=km Length=0.00963365 bus1=udm1027.1.2 bus2=udm1026.1.2 switch=n enabled=y phases=2 Linecode=1P_UG_AL_1/0_Brenau_0_416_0_2_2

New Line.l(r:udm1027-udt283lv) Units=km Length=0.00963505 bus1=udt283lv.1.2 bus2=udm1027.1.2 switch=n enabled=y phases=2 Linecode=1P_UG_AL_4/0_Sweetbriar_0_416_0_2_2

New Line.l(r:p1ulv2357-udm1028) Units=km Length=0.0164809 bus1=udm1028.1.2 bus2=p1ulv2357.1.2 switch=n enabled=y phases=2 Linecode=1P_UG_AL_1/0_Brenau_0_416_0_2_2

New Line.l(r:p1ulv2358-udm1029) Units=km Length=0.0147122 bus1=udm1029.1.2 bus2=p1ulv2358.1.2 switch=n enabled=y phases=2 Linecode=1P_UG_AL_1/0_Brenau_0_416_0_2_2

New Line.l(r:udm1028-udm1029) Units=km Length=0.00963365 bus1=udm1028.1.2 bus2=udm1029.1.2 switch=n enabled=y phases=2 Linecode=1P_UG_AL_1/0_Brenau_0_416_0_2_2

New Line.l(r:udm1028-udt283lv) Units=km Length=0.009623750000000002 bus1=udt283lv.1.2 bus2=udm1028.1.2 switch=n enabled=y phases=2 Linecode=1P_UG_AL_1/0_Brenau_0_416_0_2_2

New Line.l(r:p1ulv433-udt284lv) Units=km Length=0.0173371 bus1=udt284lv.1.2 bus2=p1ulv433.1.2 switch=n enabled=y phases=2 Linecode=1P_UG_AL_1/0_Brenau_0_416_0_2_2

New Line.l(r:p1ulv2356-udt284lv) Units=km Length=0.0168443 bus1=udt284lv.1.2 bus2=p1ulv2356.1.2 switch=n enabled=y phases=2 Linecode=1P_UG_AL_1/0_Brenau_0_416_0_2_2

New Line.l(r:p1ulv432-udm1031) Units=km Length=0.0178861 bus1=udm1031.1.2 bus2=p1ulv432.1.2 switch=n enabled=y phases=2 Linecode=1P_UG_AL_1/0_Brenau_0_416_0_2_2

New Line.l(r:p1ulv2354-udm1031) Units=km Length=0.0166637 bus1=udm1031.1.2 bus2=p1ulv2354.1.2 switch=n enabled=y phases=2 Linecode=1P_UG_AL_1/0_Brenau_0_416_0_2_2

New Line.l(r:p1ulv2355-udm1031) Units=km Length=0.0166646 bus1=udm1031.1.2 bus2=p1ulv2355.1.2 switch=n enabled=y phases=2 Linecode=1P_UG_AL_1/0_Brenau_0_416_0_2_2

New Line.l(r:udm1031-udt284lv) Units=km Length=0.00973894 bus1=udt284lv.1.2 bus2=udm1031.1.2 switch=n enabled=y phases=2 Linecode=1P_UG_AL_2/0_Converse_0_416_0_2_2

New Line.l(r:p1ulv434-udm1033) Units=km Length=0.0168908 bus1=udm1033.1.2 bus2=p1ulv434.1.2 switch=n enabled=y phases=2 Linecode=1P_UG_AL_1/0_Brenau_0_416_0_2_2

New Line.l(r:udm1033-udt284lv) Units=km Length=0.00972898 bus1=udt284lv.1.2 bus2=udm1033.1.2 switch=n enabled=y phases=2 Linecode=1P_UG_AL_1/0_Brenau_0_416_0_2_2

New Line.l(r:p1ulv435-udm1037) Units=km Length=0.015379400000000001 bus1=udm1037.1.2 bus2=p1ulv435.1.2 switch=n enabled=y phases=2 Linecode=1P_UG_AL_1/0_Brenau_0_416_0_2_2

New Line.l(r:p1ulv1133-udm1037) Units=km Length=0.0193776 bus1=udm1037.1.2 bus2=p1ulv1133.1.2 switch=n enabled=y phases=2 Linecode=1P_UG_AL_1/0_Brenau_0_416_0_2_2

New Line.l(r:p1ulv56330-udm1042) Units=km Length=0.0188722 bus1=udm1042.1.2 bus2=p1ulv56330.1.2 switch=n enabled=y phases=2 Linecode=1P_UG_AL_1/0_Brenau_0_416_0_2_2

New Line.l(r:udm1037-udm1042) Units=km Length=0.018145000000000005 bus1=udm1037.1.2 bus2=udm1042.1.2 switch=n enabled=y phases=2 Linecode=1P_UG_AL_1/0_Brenau_0_416_0_2_2

New Line.l(r:udm1037-udt285lv) Units=km Length=0.00907102 bus1=udt285lv.1.2 bus2=udm1037.1.2 switch=n enabled=y phases=2 Linecode=1P_UG_AL_4/0_Sweetbriar_0_416_0_2_2

New Line.l(r:p1ulv440-udm1038) Units=km Length=0.016711900000000002 bus1=udm1038.1.2 bus2=p1ulv440.1.2 switch=n enabled=y phases=2 Linecode=1P_UG_AL_1/0_Brenau_0_416_0_2_2

New Line.l(r:p1ulv441-udm1038) Units=km Length=0.0187688 bus1=udm1038.1.2 bus2=p1ulv441.1.2 switch=n enabled=y phases=2 Linecode=1P_UG_AL_1/0_Brenau_0_416_0_2_2

New Line.l(r:p1ulv442-udm1040) Units=km Length=0.0211905 bus1=udm1040.1.2 bus2=p1ulv442.1.2 switch=n enabled=y phases=2 Linecode=1P_UG_AL_1/0_Brenau_0_416_0_2_2

New Line.l(r:udm1038-udm1040) Units=km Length=0.009888670000000002 bus1=udm1038.1.2 bus2=udm1040.1.2 switch=n enabled=y phases=2 Linecode=1P_UG_AL_1/0_Brenau_0_416_0_2_2

New Line.l(r:udm1038-udt285lv) Units=km Length=0.0098788 bus1=udt285lv.1.2 bus2=udm1038.1.2 switch=n enabled=y phases=2 Linecode=1P_UG_AL_2/0_Converse_0_416_0_2_2

New Line.l(r:p1ulv439-udt286lv) Units=km Length=0.017576600000000005 bus1=udt286lv.1.2 bus2=p1ulv439.1.2 switch=n enabled=y phases=2 Linecode=1P_UG_AL_1/0_Brenau_0_416_0_2_2

New Line.l(r:p1ulv459-udt286lv) Units=km Length=0.0134801 bus1=udt286lv.1.2 bus2=p1ulv459.1.2 switch=n enabled=y phases=2 Linecode=1P_UG_AL_1/0_Brenau_0_416_0_2_2

New Line.l(r:p1ulv438-udm1044) Units=km Length=0.0173224 bus1=udm1044.1.2 bus2=p1ulv438.1.2 switch=n enabled=y phases=2 Linecode=1P_UG_AL_1/0_Brenau_0_416_0_2_2

New Line.l(r:p1ulv460-udm1044) Units=km Length=0.0135131 bus1=udm1044.1.2 bus2=p1ulv460.1.2 switch=n enabled=y phases=2 Linecode=1P_UG_AL_1/0_Brenau_0_416_0_2_2

New Line.l(r:p1ulv2352-udm1054) Units=km Length=0.0143918 bus1=udm1054.1.2 bus2=p1ulv2352.1.2 switch=n enabled=y phases=2 Linecode=1P_UG_AL_1/0_Brenau_0_416_0_2_2

New Line.l(r:p1ulv437-udm1043) Units=km Length=0.0160898 bus1=udm1043.1.2 bus2=p1ulv437.1.2 switch=n enabled=y phases=2 Linecode=1P_UG_AL_1/0_Brenau_0_416_0_2_2

New Line.l(r:p1ulv2353-udm1043) Units=km Length=0.014725400000000001 bus1=udm1043.1.2 bus2=p1ulv2353.1.2 switch=n enabled=y phases=2 Linecode=1P_UG_AL_1/0_Brenau_0_416_0_2_2

New Line.l(r:udm1043-udm1054) Units=km Length=0.00973894 bus1=udm1054.1.2 bus2=udm1043.1.2 switch=n enabled=y phases=2 Linecode=1P_UG_AL_1/0_Brenau_0_416_0_2_2

New Line.l(r:udm1044-udm1054) Units=km Length=0.0461448 bus1=udm1044.1.2 bus2=udm1054.1.2 switch=n enabled=y phases=2 Linecode=1P_UG_AL_2/0_Converse_0_416_0_2_2

New Line.l(r:udm1044-udt286lv) Units=km Length=0.00889296 bus1=udt286lv.1.2 bus2=udm1044.1.2 switch=n enabled=y phases=2 Linecode=1P_UG_AL_4/0_Sweetbriar_0_416_0_2_2

New Line.l(r:p1ulv447-udm1046) Units=km Length=0.0172919 bus1=udm1046.1.2 bus2=p1ulv447.1.2 switch=n enabled=y phases=2 Linecode=1P_UG_AL_1/0_Brenau_0_416_0_2_2

New Line.l(r:p1ulv451-udm1046) Units=km Length=0.0145732 bus1=udm1046.1.2 bus2=p1ulv451.1.2 switch=n enabled=y phases=2 Linecode=1P_UG_AL_1/0_Brenau_0_416_0_2_2

New Line.l(r:p1ulv448-udm1047) Units=km Length=0.017816300000000004 bus1=udm1047.1.2 bus2=p1ulv448.1.2 switch=n enabled=y phases=2 Linecode=1P_UG_AL_1/0_Brenau_0_416_0_2_2

New Line.l(r:p1ulv449-udm1047) Units=km Length=0.0183285 bus1=udm1047.1.2 bus2=p1ulv449.1.2 switch=n enabled=y phases=2 Linecode=1P_UG_AL_1/0_Brenau_0_416_0_2_2

New Line.l(r:p1ulv452-udm1047) Units=km Length=0.0175319 bus1=udm1047.1.2 bus2=p1ulv452.1.2 switch=n enabled=y phases=2 Linecode=1P_UG_AL_1/0_Brenau_0_416_0_2_2

New Line.l(r:p1ulv453-udm1051) Units=km Length=0.0197711 bus1=udm1051.1.2 bus2=p1ulv453.1.2 switch=n enabled=y phases=2 Linecode=1P_UG_AL_1/0_Brenau_0_416_0_2_2

New Line.l(r:udm1047-udm1051) Units=km Length=0.00928091 bus1=udm1047.1.2 bus2=udm1051.1.2 switch=n enabled=y phases=2 Linecode=1P_UG_AL_1/0_Brenau_0_416_0_2_2

New Line.l(r:udm1046-udm1047) Units=km Length=0.00929077 bus1=udm1046.1.2 bus2=udm1047.1.2 switch=n enabled=y phases=2 Linecode=1P_UG_AL_2/0_Converse_0_416_0_2_2

New Line.l(r:udm1046-udt286lv) Units=km Length=0.0177854 bus1=udt286lv.1.2 bus2=udm1046.1.2 switch=n enabled=y phases=2 Linecode=1P_UG_AL_4/0_Sweetbriar_0_416_0_2_2

New Line.l(r:p1ulv443-udm1056) Units=km Length=0.017012100000000002 bus1=udm1056.1.2 bus2=p1ulv443.1.2 switch=n enabled=y phases=2 Linecode=1P_UG_AL_1/0_Brenau_0_416_0_2_2

New Line.l(r:p1ulv444-udm1056) Units=km Length=0.0195906 bus1=udm1056.1.2 bus2=p1ulv444.1.2 switch=n enabled=y phases=2 Linecode=1P_UG_AL_1/0_Brenau_0_416_0_2_2

New Line.l(r:p1ulv33388-udm1059) Units=km Length=0.013708100000000003 bus1=udm1059.1.2 bus2=p1ulv33388.1.2 switch=n enabled=y phases=2 Linecode=1P_UG_AL_1/0_Brenau_0_416_0_2_2

New Line.l(r:p1ulv46208-udm1063) Units=km Length=0.0315721 bus1=udm1063.1.2 bus2=p1ulv46208.1.2 switch=n enabled=y phases=2 Linecode=1P_UG_AL_1/0_Brenau_0_416_0_2_2

New Line.l(r:udm1059-udm1063) Units=km Length=0.00999578 bus1=udm1059.1.2 bus2=udm1063.1.2 switch=n enabled=y phases=2 Linecode=1P_UG_AL_1/0_Brenau_0_416_0_2_2

New Line.l(r:udm1056-udm1059) Units=km Length=0.0199916 bus1=udm1056.1.2 bus2=udm1059.1.2 switch=n enabled=y phases=2 Linecode=1P_UG_AL_1/0_Brenau_0_416_0_2_2

New Line.l(r:udm1056-udt287lv) Units=km Length=0.018098 bus1=udt287lv.1.2 bus2=udm1056.1.2 switch=n enabled=y phases=2 Linecode=1P_OH_AL_2/0_Rucina_0_416_0_2_2

New Line.l(r:p1ulv38213-udm1060) Units=km Length=0.0165287 bus1=udm1060.1.2 bus2=p1ulv38213.1.2 switch=n enabled=y phases=2 Linecode=1P_OH_AL_2/0_Rucina_0_416_0_2_2

New Line.l(r:p1ulv40745-udm1060) Units=km Length=0.01695 bus1=udm1060.1.2 bus2=p1ulv40745.1.2 switch=n enabled=y phases=2 Linecode=1P_OH_AL_2/0_Rucina_0_416_0_2_2

New Line.l(r:p1ulv42190-udm1060) Units=km Length=0.0172334 bus1=udm1060.1.2 bus2=p1ulv42190.1.2 switch=n enabled=y phases=2 Linecode=1P_OH_AL_2/0_Rucina_0_416_0_2_2

New Line.l(r:p1ulv30393-udm1058) Units=km Length=0.019331800000000003 bus1=udm1058.1.2 bus2=p1ulv30393.1.2 switch=n enabled=y phases=2 Linecode=1P_OH_AL_2/0_Rucina_0_416_0_2_2

New Line.l(r:udm1058-udm1060) Units=km Length=0.0180998 bus1=udm1060.1.2 bus2=udm1058.1.2 switch=n enabled=y phases=2 Linecode=1P_OH_AL_2/0_Rucina_0_416_0_2_2

New Line.l(r:udm1060-udt287lv) Units=km Length=0.018098 bus1=udt287lv.1.2 bus2=udm1060.1.2 switch=n enabled=y phases=2 Linecode=1P_OH_AL_2/0_Rucina_0_416_0_2_0_2

New Line.l(r:p1ulv445-udt288lv) Units=km Length=0.017273600000000004 bus1=udt288lv.1.2 bus2=p1ulv445.1.2 switch=n enabled=y phases=2 Linecode=1P_UG_AL_1/0_Brenau_0_416_0_2_2

New Line.l(r:p1ulv446-udm1065) Units=km Length=0.0180011 bus1=udm1065.1.2 bus2=p1ulv446.1.2 switch=n enabled=y phases=2 Linecode=1P_UG_AL_1/0_Brenau_0_416_0_2_2

New Line.l(r:p1ulv31249-udm1067) Units=km Length=0.018844900000000005 bus1=udm1067.1.2 bus2=p1ulv31249.1.2 switch=n enabled=y phases=2 Linecode=1P_UG_AL_4/0_Sweetbriar_0_416_0_2_2

New Line.l(r:udm1065-udm1067) Units=km Length=0.00844287 bus1=udm1065.1.2 bus2=udm1067.1.2 switch=n enabled=y phases=2 Linecode=1P_UG_AL_4/0_Sweetbriar_0_416_0_2_2

New Line.l(r:udm1065-udt288lv) Units=km Length=0.00844427 bus1=udt288lv.1.2 bus2=udm1065.1.2 switch=n enabled=y phases=2 Linecode=1P_UG_AL_4/0_Sweetbriar_0_416_0_2_2

New Line.l(r:p1ulv450-udm1066) Units=km Length=0.0173464 bus1=udm1066.1.2 bus2=p1ulv450.1.2 switch=n enabled=y phases=2 Linecode=1P_UG_AL_1/0_Brenau_0_416_0_2_2

New Line.l(r:udm1066-udt288lv) Units=km Length=0.0140951 bus1=udt288lv.1.2 bus2=udm1066.1.2 switch=n enabled=y phases=2 Linecode=1P_UG_AL_1/0_Brenau_0_416_0_2_2

New Line.l(r:p1ulv455-udt289lv) Units=km Length=0.0199288 bus1=udt289lv.1.2 bus2=p1ulv455.1.2 switch=n enabled=y phases=2 Linecode=1P_UG_AL_1/0_Brenau_0_416_0_2_2

New Line.l(r:p1ulv454-udm1068) Units=km Length=0.0194641 bus1=udm1068.1.2 bus2=p1ulv454.1.2 switch=n enabled=y phases=2 Linecode=1P_UG_AL_1/0_Brenau_0_416_0_2_2

New Line.l(r:udm1068-udt289lv) Units=km Length=0.00980837 bus1=udt289lv.1.2 bus2=udm1068.1.2 switch=n enabled=y phases=2 Linecode=1P_UG_AL_1/0_Brenau_0_416_0_2_2

New Line.l(r:p1ulv458-udt290lv) Units=km Length=0.0163099 bus1=udt290lv.1.2 bus2=p1ulv458.1.2 switch=n enabled=y phases=2 Linecode=1P_UG_AL_1/0_Brenau_0_416_0_2_2

New Line.l(r:p1ulv464-udt290lv) Units=km Length=0.0150529 bus1=udt290lv.1.2 bus2=p1ulv464.1.2 switch=n enabled=y phases=2 Linecode=1P_UG_AL_1/0_Brenau_0_416_0_2_2

New Line.l(r:p1ulv457-udm1070) Units=km Length=0.0156695 bus1=udm1070.1.2 bus2=p1ulv457.1.2 switch=n enabled=y phases=2 Linecode=1P_UG_AL_1/0_Brenau_0_416_0_2_2

New Line.l(r:udm1070-udt290lv) Units=km Length=0.009131980000000001 bus1=udt290lv.1.2 bus2=udm1070.1.2 switch=n enabled=y phases=2 Linecode=1P_UG_AL_1/0_Brenau_0_416_0_2_2

New Line.l(r:p1ulv465-udm1073) Units=km Length=0.01471 bus1=udm1073.1.2 bus2=p1ulv465.1.2 switch=n enabled=y phases=2 Linecode=1P_UG_AL_1/0_Brenau_0_416_0_2_2

New Line.l(r:udm1073-udt290lv) Units=km Length=0.00914197 bus1=udt290lv.1.2 bus2=udm1073.1.2 switch=n enabled=y phases=2 Linecode=1P_UG_AL_1/0_Brenau_0_416_0_2_2

New Line.l(r:p1ulv461-udt291lv) Units=km Length=0.0157129 bus1=udt291lv.1.2 bus2=p1ulv461.1.2 switch=n enabled=y phases=2 Linecode=1P_UG_AL_1/0_Brenau_0_416_0_2_2

New Line.l(r:p1ulv462-udm1075) Units=km Length=0.0155604 bus1=udm1075.1.2 bus2=p1ulv462.1.2 switch=n enabled=y phases=2 Linecode=1P_UG_AL_1/0_Brenau_0_416_0_2_2

New Line.l(r:udm1075-udt291lv) Units=km Length=0.0091275 bus1=udt291lv.1.2 bus2=udm1075.1.2 switch=n enabled=y phases=2 Linecode=1P_UG_AL_1/0_Brenau_0_416_0_2_2

New Line.l(r:p1ulv463-udm1076) Units=km Length=0.0157314 bus1=udm1076.1.2 bus2=p1ulv463.1.2 switch=n enabled=y phases=2 Linecode=1P_UG_AL_1/0_Brenau_0_416_0_2_2

New Line.l(r:udm1076-udt291lv) Units=km Length=0.0091275 bus1=udt291lv.1.2 bus2=udm1076.1.2 switch=n enabled=y phases=2 Linecode=1P_UG_AL_1/0_Brenau_0_416_0_2_2

New Line.l(r:p1ulv468-udt292lv) Units=km Length=0.016379400000000002 bus1=udt292lv.1.2 bus2=p1ulv468.1.2 switch=n enabled=y phases=2 Linecode=1P_UG_AL_1/0_Brenau_0_416_0_2_2

New Line.l(r:p1ulv1135-udt292lv) Units=km Length=0.0140829 bus1=udt292lv.1.2 bus2=p1ulv1135.1.2 switch=n enabled=y phases=2 Linecode=1P_UG_AL_2/0_Converse_0_416_0_2_2

New Line.l(r:p1ulv467-udm1078) Units=km Length=0.015608100000000001 bus1=udm1078.1.2 bus2=p1ulv467.1.2 switch=n enabled=y phases=2 Linecode=1P_UG_AL_1/0_Brenau_0_416_0_2_2

New Line.l(r:p1ulv466-udm1077) Units=km Length=0.0153042 bus1=udm1077.1.2 bus2=p1ulv466.1.2 switch=n enabled=y phases=2 Linecode=1P_UG_AL_1/0_Brenau_0_416_0_2_2

New Line.l(r:udm1077-udm1078) Units=km Length=0.00979656 bus1=udm1078.1.2 bus2=udm1077.1.2 switch=n enabled=y phases=2 Linecode=1P_UG_AL_1/0_Brenau_0_416_0_2_2

New Line.l(r:udm1078-udt292lv) Units=km Length=0.0097842 bus1=udt292lv.1.2 bus2=udm1078.1.2 switch=n enabled=y phases=2 Linecode=1P_UG_AL_1/0_Brenau_0_416_0_2_2

New Line.l(r:p1ulv2333-udm1081) Units=km Length=0.0145389 bus1=udm1081.1.2 bus2=p1ulv2333.1.2 switch=n enabled=y phases=2 Linecode=1P_UG_AL_1/0_Brenau_0_416_0_2_2

New Line.l(r:udm1081-udt292lv) Units=km Length=0.019578 bus1=udt292lv.1.2 bus2=udm1081.1.2 switch=n enabled=y phases=2 Linecode=1P_UG_AL_1/0_Brenau_0_416_0_2_2

New Line.l(r:p1ulv469-udm1082) Units=km Length=0.0255334 bus1=udm1082.1.2 bus2=p1ulv469.1.2 switch=n enabled=y phases=2 Linecode=1P_UG_AL_1/0_Brenau_0_416_0_2_2

New Line.l(r:p1ulv470-udm1083) Units=km Length=0.0198498 bus1=udm1083.1.2 bus2=p1ulv470.1.2 switch=n enabled=y phases=2 Linecode=1P_UG_AL_1/0_Brenau_0_416_0_2_2

New Line.l(r:p1ulv471-udm1083) Units=km Length=0.014833 bus1=udm1083.1.2 bus2=p1ulv471.1.2 switch=n enabled=y phases=2 Linecode=1P_UG_AL_1/0_Brenau_0_416_0_2_2

New Line.l(r:udm1082-udm1083) Units=km Length=0.00823712 bus1=udm1082.1.2 bus2=udm1083.1.2 switch=n enabled=y phases=2 Linecode=1P_UG_AL_1/0_Brenau_0_416_0_2_2

New Line.l(r:udm1082-udt293lv) Units=km Length=0.024714700000000003 bus1=udt293lv.1.2 bus2=udm1082.1.2 switch=n enabled=y phases=2 Linecode=1P_UG_AL_2/0_Converse_0_416_0_2_2

New Line.l(r:p1ulv476-udm1085) Units=km Length=0.0153446 bus1=udm1085.1.2 bus2=p1ulv476.1.2 switch=n enabled=y phases=2 Linecode=1P_UG_AL_1/0_Brenau_0_416_0_2_2

New Line.l(r:p1ulv55759-udm1085) Units=km Length=0.0243722 bus1=udm1085.1.2 bus2=p1ulv55759.1.2 switch=n enabled=y phases=2 Linecode=1P_UG_AL_1/0_Brenau_0_416_0_2_2

New Line.l(r:p1ulv46505-udm1086) Units=km Length=0.0216939 bus1=udm1086.1.2 bus2=p1ulv46505.1.2 switch=n enabled=y phases=2 Linecode=1P_UG_AL_4/0_Sweetbriar_0_416_0_2_2

New Line.l(r:udm1085-udm1086) Units=km Length=0.00930158 bus1=udm1085.1.2 bus2=udm1086.1.2 switch=n enabled=y phases=2 Linecode=1P_UG_AL_4/0_Sweetbriar_0_416_0_2_2

New Line.l(r:udm1085-udt293lv) Units=km Length=0.0279236 bus1=udt293lv.1.2 bus2=udm1085.1.2 switch=n enabled=y phases=2 Linecode=1P_UG_AL_4/0_Sweetbriar_0_416_0_2_2

New Line.l(r:p1ulv565-udt294lv) Units=km Length=0.0140516 bus1=udt294lv.1.2 bus2=p1ulv565.1.2 switch=n enabled=y phases=2 Linecode=1P_UG_AL_1/0_Brenau_0_416_0_2_2

New Line.l(r:p1ulv472-udm1088) Units=km Length=0.0228027 bus1=udm1088.1.2 bus2=p1ulv472.1.2 switch=n enabled=y phases=2 Linecode=1P_UG_AL_1/0_Brenau_0_416_0_2_2

New Line.l(r:p1ulv473-udm1089) Units=km Length=0.0248523 bus1=udm1089.1.2 bus2=p1ulv473.1.2 switch=n enabled=y phases=2 Linecode=1P_UG_AL_1/0_Brenau_0_416_0_2_2

New Line.l(r:p1ulv474-udm1090) Units=km Length=0.0269451 bus1=udm1090.1.2 bus2=p1ulv474.1.2 switch=n enabled=y phases=2 Linecode=1P_UG_AL_1/0_Brenau_0_416_0_2_2

New Line.l(r:udm1089-udm1090) Units=km Length=0.0170442 bus1=udm1089.1.2 bus2=udm1090.1.2 switch=n enabled=y phases=2 Linecode=1P_UG_AL_1/0_Brenau_0_416_0_2_2

New Line.l(r:udm1088-udm1089) Units=km Length=0.00883544 bus1=udm1088.1.2 bus2=udm1089.1.2 switch=n enabled=y phases=2 Linecode=1P_UG_AL_1/0_Brenau_0_416_0_2_2

New Line.l(r:udm1088-udt294lv) Units=km Length=0.00883544 bus1=udt294lv.1.2 bus2=udm1088.1.2 switch=n enabled=y phases=2 Linecode=1P_UG_AL_2/0_Converse_0_416_0_2_2

New Line.l(r:p1ulv564-udm1091) Units=km Length=0.0132033 bus1=udm1091.1.2 bus2=p1ulv564.1.2 switch=n enabled=y phases=2 Linecode=1P_UG_AL_1/0_Brenau_0_416_0_2_2

New Line.l(r:p1ulv1164-udm1093) Units=km Length=0.0266381 bus1=udm1093.1.2 bus2=p1ulv1164.1.2 switch=n enabled=y phases=2 Linecode=1P_UG_AL_1/0_Brenau_0_416_0_2_2

New Line.l(r:udm1091-udm1093) Units=km Length=0.0453473 bus1=udm1091.1.2 bus2=udm1093.1.2 switch=n enabled=y phases=2 Linecode=1P_UG_AL_1/0_Brenau_0_416_0_2_2

New Line.l(r:udm1091-udt294lv) Units=km Length=0.008412190000000002 bus1=udt294lv.1.2 bus2=udm1091.1.2 switch=n enabled=y phases=2 Linecode=1P_UG_AL_2/0_Converse_0_416_0_2_2

New Line.l(r:p1ulv475-udm1094) Units=km Length=0.0153855 bus1=udm1094.1.2 bus2=p1ulv475.1.2 switch=n enabled=y phases=2 Linecode=1P_UG_AL_1/0_Brenau_0_416_0_2_2

New Line.l(r:udm1094-udt295lv) Units=km Length=0.00930978 bus1=udt295lv.1.2 bus2=udm1094.1.2 switch=n enabled=y phases=2 Linecode=1P_UG_AL_1/0_Brenau_0_416_0_2_2

New Line.l(r:p1ulv53016-udm1095) Units=km Length=0.0141905 bus1=udm1095.1.2 bus2=p1ulv53016.1.2 switch=n enabled=y phases=2 Linecode=1P_UG_AL_1/0_Brenau_0_416_0_2_2

New Line.l(r:udm1095-udt295lv) Units=km Length=0.00930978 bus1=udt295lv.1.2 bus2=udm1095.1.2 switch=n enabled=y phases=2 Linecode=1P_UG_AL_1/0_Brenau_0_416_0_2_2

New Line.l(r:p1ulv478-udt296lv) Units=km Length=0.0156145 bus1=udt296lv.1.2 bus2=p1ulv478.1.2 switch=n enabled=y phases=2 Linecode=1P_UG_AL_1/0_Brenau_0_416_0_2_2

New Line.l(r:p1ulv1168-udt296lv) Units=km Length=0.0264952 bus1=udt296lv.1.2 bus2=p1ulv1168.1.2 switch=n enabled=y phases=2 Linecode=1P_UG_AL_1/0_Brenau_0_416_0_2_2

New Line.l(r:p1ulv477-udm1096) Units=km Length=0.0155013 bus1=udm1096.1.2 bus2=p1ulv477.1.2 switch=n enabled=y phases=2 Linecode=1P_UG_AL_1/0_Brenau_0_416_0_2_2

New Line.l(r:udm1096-udt296lv) Units=km Length=0.00935449 bus1=udt296lv.1.2 bus2=udm1096.1.2 switch=n enabled=y phases=2 Linecode=1P_UG_AL_1/0_Brenau_0_416_0_2_2

New Line.l(r:p1ulv482-udt297lv) Units=km Length=0.031224 bus1=udt297lv.1.2 bus2=p1ulv482.1.2 switch=n enabled=y phases=2 Linecode=1P_UG_AL_1/0_Brenau_0_416_0_2_2

New Line.l(r:p1ulv480-udm1100) Units=km Length=0.0223762 bus1=udm1100.1.2 bus2=p1ulv480.1.2 switch=n enabled=y phases=2 Linecode=1P_UG_AL_1/0_Brenau_0_416_0_2_2

New Line.l(r:p1ulv481-udm1100) Units=km Length=0.0269433 bus1=udm1100.1.2 bus2=p1ulv481.1.2 switch=n enabled=y phases=2 Linecode=1P_UG_AL_1/0_Brenau_0_416_0_2_2

New Line.l(r:p1ulv479-udm1099) Units=km Length=0.018741 bus1=udm1099.1.2 bus2=p1ulv479.1.2 switch=n enabled=y phases=2 Linecode=1P_UG_AL_1/0_Brenau_0_416_0_2_2

New Line.l(r:udm1099-udm1100) Units=km Length=0.00823409 bus1=udm1100.1.2 bus2=udm1099.1.2 switch=n enabled=y phases=2 Linecode=1P_UG_AL_1/0_Brenau_0_416_0_2_2

New Line.l(r:udm1100-udt297lv) Units=km Length=0.00820304 bus1=udt297lv.1.2 bus2=udm1100.1.2 switch=n enabled=y phases=2 Linecode=1P_UG_AL_4/0_Sweetbriar_0_416_0_2_2

New Line.l(r:p1ulv483-udm1103) Units=km Length=0.0250786 bus1=udm1103.1.2 bus2=p1ulv483.1.2 switch=n enabled=y phases=2 Linecode=1P_UG_AL_1/0_Brenau_0_416_0_2_2

New Line.l(r:p1ulv484-udm1103) Units=km Length=0.020120800000000005 bus1=udm1103.1.2 bus2=p1ulv484.1.2 switch=n enabled=y phases=2 Linecode=1P_UG_AL_1/0_Brenau_0_416_0_2_2

New Line.l(r:udm1103-udt297lv) Units=km Length=0.00821718 bus1=udt297lv.1.2 bus2=udm1103.1.2 switch=n enabled=y phases=2 Linecode=1P_UG_AL_1/0_Brenau_0_416_0_2_2

New Line.l(r:p1ulv485-udt298lv) Units=km Length=0.015779 bus1=udt298lv.1.2 bus2=p1ulv485.1.2 switch=n enabled=y phases=2 Linecode=1P_UG_AL_1/0_Brenau_0_416_0_2_2

New Line.l(r:p1ulv492-udt298lv) Units=km Length=0.0161604 bus1=udt298lv.1.2 bus2=p1ulv492.1.2 switch=n enabled=y phases=2 Linecode=1P_UG_AL_1/0_Brenau_0_416_0_2_2

New Line.l(r:p1ulv487-udm1106) Units=km Length=0.0157827 bus1=udm1106.1.2 bus2=p1ulv487.1.2 switch=n enabled=y phases=2 Linecode=1P_UG_AL_1/0_Brenau_0_416_0_2_2

New Line.l(r:udm1106-udt298lv) Units=km Length=0.0099194 bus1=udt298lv.1.2 bus2=udm1106.1.2 switch=n enabled=y phases=2 Linecode=1P_UG_AL_1/0_Brenau_0_416_0_2_2

New Line.l(r:p1ulv491-udm1107) Units=km Length=0.0162659 bus1=udm1107.1.2 bus2=p1ulv491.1.2 switch=n enabled=y phases=2 Linecode=1P_UG_AL_1/0_Brenau_0_416_0_2_2

New Line.l(r:udm1107-udt298lv) Units=km Length=0.00991042 bus1=udt298lv.1.2 bus2=udm1107.1.2 switch=n enabled=y phases=2 Linecode=1P_UG_AL_1/0_Brenau_0_416_0_2_2

New Line.l(r:p1ulv489-udt299lv) Units=km Length=0.0251436 bus1=udt299lv.1.2 bus2=p1ulv489.1.2 switch=n enabled=y phases=2 Linecode=1P_UG_AL_1/0_Brenau_0_416_0_2_2

New Line.l(r:p1ulv498-udt299lv) Units=km Length=0.0198898 bus1=udt299lv.1.2 bus2=p1ulv498.1.2 switch=n enabled=y phases=2 Linecode=1P_UG_AL_1/0_Brenau_0_416_0_2_2

New Line.l(r:p1ulv499-udt299lv) Units=km Length=0.016501 bus1=udt299lv.1.2 bus2=p1ulv499.1.2 switch=n enabled=y phases=2 Linecode=1P_UG_AL_1/0_Brenau_0_416_0_2_2

New Line.l(r:p1ulv488-udm1109) Units=km Length=0.0319144 bus1=udm1109.1.2 bus2=p1ulv488.1.2 switch=n enabled=y phases=2 Linecode=1P_UG_AL_1/0_Brenau_0_416_0_2_2

New Line.l(r:p1ulv497-udm1109) Units=km Length=0.0221428 bus1=udm1109.1.2 bus2=p1ulv497.1.2 switch=n enabled=y phases=2 Linecode=1P_UG_AL_1/0_Brenau_0_416_0_2_2

New Line.l(r:udm1109-udt299lv) Units=km Length=0.00991042 bus1=udt299lv.1.2 bus2=udm1109.1.2 switch=n enabled=y phases=2 Linecode=1P_UG_AL_1/0_Brenau_0_416_0_2_2

New Line.l(r:p1ulv490-udm1111) Units=km Length=0.0198031 bus1=udm1111.1.2 bus2=p1ulv490.1.2 switch=n enabled=y phases=2 Linecode=1P_UG_AL_1/0_Brenau_0_416_0_2_2

New Line.l(r:udm1111-udt299lv) Units=km Length=0.00991498 bus1=udt299lv.1.2 bus2=udm1111.1.2 switch=n enabled=y phases=2 Linecode=1P_UG_AL_1/0_Brenau_0_416_0_2_2

New Line.l(r:p1ulv494-udt300lv) Units=km Length=0.0152606 bus1=udt300lv.1.2 bus2=p1ulv494.1.2 switch=n enabled=y phases=2 Linecode=1P_UG_AL_1/0_Brenau_0_416_0_2_2

New Line.l(r:p1ulv495-udt300lv) Units=km Length=0.0195237 bus1=udt300lv.1.2 bus2=p1ulv495.1.2 switch=n enabled=y phases=2 Linecode=1P_UG_AL_1/0_Brenau_0_416_0_2_2

New Line.l(r:p1ulv496-udm1117) Units=km Length=0.024662 bus1=udm1117.1.2 bus2=p1ulv496.1.2 switch=n enabled=y phases=2 Linecode=1P_UG_AL_1/0_Brenau_0_416_0_2_2

New Line.l(r:udm1117-udt300lv) Units=km Length=0.00953667 bus1=udt300lv.1.2 bus2=udm1117.1.2 switch=n enabled=y phases=2 Linecode=1P_UG_AL_1/0_Brenau_0_416_0_2_2

New Line.l(r:p1ulv501-udt301lv) Units=km Length=0.0214379 bus1=udt301lv.1.2 bus2=p1ulv501.1.2 switch=n enabled=y phases=2 Linecode=1P_UG_AL_1/0_Brenau_0_416_0_2_2

New Line.l(r:p1ulv500-udm1118) Units=km Length=0.0249746 bus1=udm1118.1.2 bus2=p1ulv500.1.2 switch=n enabled=y phases=2 Linecode=1P_UG_AL_1/0_Brenau_0_416_0_2_2

New Line.l(r:udm1118-udt301lv) Units=km Length=0.00869437 bus1=udt301lv.1.2 bus2=udm1118.1.2 switch=n enabled=y phases=2 Linecode=1P_UG_AL_1/0_Brenau_0_416_0_2_2

New Line.l(r:p1ulv502-udm1120) Units=km Length=0.018452800000000002 bus1=udm1120.1.2 bus2=p1ulv502.1.2 switch=n enabled=y phases=2 Linecode=1P_UG_AL_1/0_Brenau_0_416_0_2_2

New Line.l(r:udm1120-udt301lv) Units=km Length=0.00869437 bus1=udt301lv.1.2 bus2=udm1120.1.2 switch=n enabled=y phases=2 Linecode=1P_UG_AL_1/0_Brenau_0_416_0_2_2

New Line.l(r:p1ulv504-udt302lv) Units=km Length=0.0208633 bus1=udt302lv.1.2 bus2=p1ulv504.1.2 switch=n enabled=y phases=2 Linecode=1P_UG_AL_1/0_Brenau_0_416_0_2_2

New Line.l(r:p1ulv505-udt302lv) Units=km Length=0.0239851 bus1=udt302lv.1.2 bus2=p1ulv505.1.2 switch=n enabled=y phases=2 Linecode=1P_UG_AL_1/0_Brenau_0_416_0_2_2

New Line.l(r:p1ulv518-udt302lv) Units=km Length=0.0272676 bus1=udt302lv.1.2 bus2=p1ulv518.1.2 switch=n enabled=y phases=2 Linecode=1P_UG_AL_1/0_Brenau_0_416_0_2_2

New Line.l(r:p1ulv520-udt302lv) Units=km Length=0.020694 bus1=udt302lv.1.2 bus2=p1ulv520.1.2 switch=n enabled=y phases=2 Linecode=1P_UG_AL_1/0_Brenau_0_416_0_2_2

New Line.l(r:p1ulv503-udm1121) Units=km Length=0.0171432 bus1=udm1121.1.2 bus2=p1ulv503.1.2 switch=n enabled=y phases=2 Linecode=1P_UG_AL_1/0_Brenau_0_416_0_2_2

New Line.l(r:udm1121-udt302lv) Units=km Length=0.00991042 bus1=udt302lv.1.2 bus2=udm1121.1.2 switch=n enabled=y phases=2 Linecode=1P_UG_AL_1/0_Brenau_0_416_0_2_2

New Line.l(r:p1ulv519-udm1125) Units=km Length=0.0321056 bus1=udm1125.1.2 bus2=p1ulv519.1.2 switch=n enabled=y phases=2 Linecode=1P_UG_AL_1/0_Brenau_0_416_0_2_2

New Line.l(r:udm1125-udt302lv) Units=km Length=0.0099194 bus1=udt302lv.1.2 bus2=udm1125.1.2 switch=n enabled=y phases=2 Linecode=1P_UG_AL_1/0_Brenau_0_416_0_2_2

New Line.l(r:p1ulv506-udt303lv) Units=km Length=0.0227289 bus1=udt303lv.1.2 bus2=p1ulv506.1.2 switch=n enabled=y phases=2 Linecode=1P_UG_AL_1/0_Brenau_0_416_0_2_2

New Line.l(r:p1ulv508-udt303lv) Units=km Length=0.0193553 bus1=udt303lv.1.2 bus2=p1ulv508.1.2 switch=n enabled=y phases=2 Linecode=1P_UG_AL_1/0_Brenau_0_416_0_2_2
