New Line.l(r:p1ulv653-udt337lv) Units=km Length=0.0163534 bus1=udt337lv.1.2 bus2=p1ulv653.1.2 switch=n enabled=y phases=2 Linecode=1P_OH_AL_2/0_Rucina_0_416_0_2_2

New Line.l(r:p1ulv654-udt337lv) Units=km Length=0.0268717 bus1=udt337lv.1.2 bus2=p1ulv654.1.2 switch=n enabled=y phases=2 Linecode=1P_OH_AL_2/0_Rucina_0_416_0_2_2

New Line.l(r:p1ulv656-udt337lv) Units=km Length=0.0398259 bus1=udt337lv.1.2 bus2=p1ulv656.1.2 switch=n enabled=y phases=2 Linecode=1P_OH_AL_4/0_Zuzara_0_416_0_2_2

New Line.l(r:p1ulv658-udt338lv) Units=km Length=0.0263196 bus1=udt338lv.1.2 bus2=p1ulv658.1.2 switch=n enabled=y phases=2 Linecode=1P_OH_AL_2/0_Rucina_0_416_0_2_2

New Line.l(r:p1ulv659-udt338lv) Units=km Length=0.0344442 bus1=udt338lv.1.2 bus2=p1ulv659.1.2 switch=n enabled=y phases=2 Linecode=1P_OH_AL_4/0_Zuzara_0_416_0_2_2

New Line.l(r:p1ulv660-udt338lv) Units=km Length=0.0424198 bus1=udt338lv.1.2 bus2=p1ulv660.1.2 switch=n enabled=y phases=2 Linecode=1P_OH_AL_4/0_Zuzara_0_416_0_2_2

New Line.l(r:p1ulv669-udt338lv) Units=km Length=0.0654179 bus1=udt338lv.1.2 bus2=p1ulv669.1.2 switch=n enabled=y phases=2 Linecode=1P_OH_AL_4/0_Zuzara_0_416_0_2_2

New Line.l(r:p1ulv657-udm1321) Units=km Length=0.016419200000000002 bus1=udm1321.1.2 bus2=p1ulv657.1.2 switch=n enabled=y phases=2 Linecode=1P_OH_AL_2/0_Rucina_0_416_0_2_2

New Line.l(r:p1ulv661-udm1325) Units=km Length=0.0498732 bus1=udm1325.1.2 bus2=p1ulv661.1.2 switch=n enabled=y phases=2 Linecode=1P_OH_AL_4/0_Zuzara_0_416_0_2_2

New Line.l(r:udm1321-udm1325) Units=km Length=0.010047600000000002 bus1=udm1321.1.2 bus2=udm1325.1.2 switch=n enabled=y phases=2 Linecode=1P_OH_AL_2/0_Rucina_0_416_0_2_2

New Line.l(r:udm1321-udt338lv) Units=km Length=0.0171291 bus1=udt338lv.1.2 bus2=udm1321.1.2 switch=n enabled=y phases=2 Linecode=1P_OH_AL_2/0_Rucina_0_416_0_2_2

New Line.l(r:p1ulv668-udm1326) Units=km Length=0.075 bus1=udm1326.1.2 bus2=p1ulv668.1.2 switch=n enabled=y phases=2 Linecode=1P_OH_AL_4/0_Zuzara_0_416_0_2_2

New Line.l(r:udm1326-udt338lv) Units=km Length=0.0171193 bus1=udt338lv.1.2 bus2=udm1326.1.2 switch=n enabled=y phases=2 Linecode=1P_OH_AL_2/0_Rucina_0_416_0_2_2

New Line.l(r:p1ulv671-udt339lv) Units=km Length=0.0264966 bus1=udt339lv.1.2 bus2=p1ulv671.1.2 switch=n enabled=y phases=2 Linecode=1P_OH_AL_2/0_Rucina_0_416_0_2_2

New Line.l(r:p1ulv672-udt339lv) Units=km Length=0.0339721 bus1=udt339lv.1.2 bus2=p1ulv672.1.2 switch=n enabled=y phases=2 Linecode=1P_OH_AL_4/0_Zuzara_0_416_0_2_2

New Line.l(r:p1ulv673-udt339lv) Units=km Length=0.0410072 bus1=udt339lv.1.2 bus2=p1ulv673.1.2 switch=n enabled=y phases=2 Linecode=1P_OH_AL_4/0_Zuzara_0_416_0_2_2

New Line.l(r:p1ulv670-udm1328) Units=km Length=0.0132822 bus1=udm1328.1.2 bus2=p1ulv670.1.2 switch=n enabled=y phases=2 Linecode=1P_OH_AL_2/0_Rucina_0_416_0_2_2

New Line.l(r:udm1328-udt339lv) Units=km Length=0.0107198 bus1=udt339lv.1.2 bus2=udm1328.1.2 switch=n enabled=y phases=2 Linecode=1P_OH_AL_2/0_Rucina_0_416_0_2_2

New Line.l(r:p1ulv4110-udt1850lv) Units=km Length=0.0190686 bus1=udt1850lv.1.2 bus2=p1ulv4110.1.2 switch=n enabled=y phases=2 Linecode=1P_UG_AL_1/0_Brenau_0_416_0_2_2

New Line.l(r:p1ulv4111-udt1850lv) Units=km Length=0.0304346 bus1=udt1850lv.1.2 bus2=p1ulv4111.1.2 switch=n enabled=y phases=2 Linecode=1P_UG_AL_1/0_Brenau_0_416_0_2_2

New Line.l(r:p1ulv4112-udt1850lv) Units=km Length=0.0363618 bus1=udt1850lv.1.2 bus2=p1ulv4112.1.2 switch=n enabled=y phases=2 Linecode=1P_UG_AL_1/0_Brenau_0_416_0_2_2

New Line.l(r:p1ulv4113-udt1850lv) Units=km Length=0.0427806 bus1=udt1850lv.1.2 bus2=p1ulv4113.1.2 switch=n enabled=y phases=2 Linecode=1P_UG_AL_1/0_Brenau_0_416_0_2_2

New Line.l(r:p1ulv4114-udt1850lv) Units=km Length=0.0274399 bus1=udt1850lv.1.2 bus2=p1ulv4114.1.2 switch=n enabled=y phases=2 Linecode=1P_UG_AL_1/0_Brenau_0_416_0_2_2

New Line.l(r:p1ulv4115-udt1850lv) Units=km Length=0.0349381 bus1=udt1850lv.1.2 bus2=p1ulv4115.1.2 switch=n enabled=y phases=2 Linecode=1P_UG_AL_1/0_Brenau_0_416_0_2_2

New Line.l(r:p1ulv4116-udt1850lv) Units=km Length=0.0408089 bus1=udt1850lv.1.2 bus2=p1ulv4116.1.2 switch=n enabled=y phases=2 Linecode=1P_UG_AL_1/0_Brenau_0_416_0_2_2

New Line.l(r:p1ulv4117-udt1850lv) Units=km Length=0.0164603 bus1=udt1850lv.1.2 bus2=p1ulv4117.1.2 switch=n enabled=y phases=2 Linecode=1P_UG_AL_1/0_Brenau_0_416_0_2_2

New Line.l(r:p1ulv4120-udt1851lv) Units=km Length=0.0126025 bus1=udt1851lv.1.2 bus2=p1ulv4120.1.2 switch=n enabled=y phases=2 Linecode=1P_UG_AL_1/0_Brenau_0_416_0_2_2

New Line.l(r:p1ulv4118-udm7372) Units=km Length=0.0126688 bus1=udm7372.1.2 bus2=p1ulv4118.1.2 switch=n enabled=y phases=2 Linecode=1P_UG_AL_1/0_Brenau_0_416_0_2_2

New Line.l(r:udm7372-udt1851lv) Units=km Length=0.0147639 bus1=udt1851lv.1.2 bus2=udm7372.1.2 switch=n enabled=y phases=2 Linecode=1P_UG_AL_1/0_Brenau_0_416_0_2_2

New Line.l(r:p1ulv4134-udm7376) Units=km Length=0.0174769 bus1=udm7376.1.2 bus2=p1ulv4134.1.2 switch=n enabled=y phases=2 Linecode=1P_UG_AL_1/0_Brenau_0_416_0_2_2

New Line.l(r:p1ulv4129-udm7375) Units=km Length=0.00578661 bus1=udm7375.1.2 bus2=p1ulv4129.1.2 switch=n enabled=y phases=2 Linecode=1P_UG_AL_1/0_Brenau_0_416_0_2_2

New Line.l(r:p1ulv4128-udm7374) Units=km Length=0.017768000000000003 bus1=udm7374.1.2 bus2=p1ulv4128.1.2 switch=n enabled=y phases=2 Linecode=1P_UG_AL_1/0_Brenau_0_416_0_2_2

New Line.l(r:udm7374-udm7375) Units=km Length=0.00756352 bus1=udm7375.1.2 bus2=udm7374.1.2 switch=n enabled=y phases=2 Linecode=1P_UG_AL_1/0_Brenau_0_416_0_2_2

New Line.l(r:udm7375-udm7376) Units=km Length=0.00756128 bus1=udm7376.1.2 bus2=udm7375.1.2 switch=n enabled=y phases=2 Linecode=1P_UG_AL_1/0_Brenau_0_416_0_2_2

New Line.l(r:udm7376-udt1851lv) Units=km Length=0.00756128 bus1=udt1851lv.1.2 bus2=udm7376.1.2 switch=n enabled=y phases=2 Linecode=1P_UG_AL_4/0_Sweetbriar_0_416_0_2_2

New Line.l(r:p1ulv4122-udt1852lv) Units=km Length=0.0397234 bus1=udt1852lv.1.2 bus2=p1ulv4122.1.2 switch=n enabled=y phases=2 Linecode=1P_OH_AL_4/0_Zuzara_0_416_0_2_2

New Line.l(r:p1ulv4123-udt1852lv) Units=km Length=0.0454706 bus1=udt1852lv.1.2 bus2=p1ulv4123.1.2 switch=n enabled=y phases=2 Linecode=1P_OH_AL_4/0_Zuzara_0_416_0_2_2

New Line.l(r:p1ulv4124-udt1852lv) Units=km Length=0.032398 bus1=udt1852lv.1.2 bus2=p1ulv4124.1.2 switch=n enabled=y phases=2 Linecode=1P_OH_AL_4/0_Zuzara_0_416_0_2_2

New Line.l(r:p1ulv4125-udt1852lv) Units=km Length=0.0197274 bus1=udt1852lv.1.2 bus2=p1ulv4125.1.2 switch=n enabled=y phases=2 Linecode=1P_OH_AL_2/0_Rucina_0_416_0_2_2

New Line.l(r:p1ulv7268-udm7381) Units=km Length=0.0216898 bus1=udm7381.1.2 bus2=p1ulv7268.1.2 switch=n enabled=y phases=2 Linecode=1P_OH_AL_2/0_Rucina_0_416_0_2_2

New Line.l(r:p1ulv9287-udm7381) Units=km Length=0.0175428 bus1=udm7381.1.2 bus2=p1ulv9287.1.2 switch=n enabled=y phases=2 Linecode=1P_OH_AL_2/0_Rucina_0_416_0_2_2

New Line.l(r:udm7381-udt1852lv) Units=km Length=0.021438 bus1=udt1852lv.1.2 bus2=udm7381.1.2 switch=n enabled=y phases=2 Linecode=1P_OH_AL_2/0_Rucina_0_416_0_2_2

New Line.l(r:p1ulv4126-udt1853lv) Units=km Length=0.014931800000000002 bus1=udt1853lv.1.2 bus2=p1ulv4126.1.2 switch=n enabled=y phases=2 Linecode=1P_UG_AL_1/0_Brenau_0_416_0_2_2

New Line.l(r:p1ulv4127-udm7384) Units=km Length=0.0209305 bus1=udm7384.1.2 bus2=p1ulv4127.1.2 switch=n enabled=y phases=2 Linecode=1P_UG_AL_1/0_Brenau_0_416_0_2_2

New Line.l(r:udm7384-udt1853lv) Units=km Length=0.0157475 bus1=udt1853lv.1.2 bus2=udm7384.1.2 switch=n enabled=y phases=2 Linecode=1P_UG_AL_1/0_Brenau_0_416_0_2_2

New Line.l(r:p1ulv4131-udt1854lv) Units=km Length=0.0199527 bus1=udt1854lv.1.2 bus2=p1ulv4131.1.2 switch=n enabled=y phases=2 Linecode=1P_UG_AL_1/0_Brenau_0_416_0_2_2

New Line.l(r:p1ulv4132-udt1854lv) Units=km Length=0.0183744 bus1=udt1854lv.1.2 bus2=p1ulv4132.1.2 switch=n enabled=y phases=2 Linecode=1P_UG_AL_1/0_Brenau_0_416_0_2_2

New Line.l(r:p1ulv4130-udm7385) Units=km Length=0.0225781 bus1=udm7385.1.2 bus2=p1ulv4130.1.2 switch=n enabled=y phases=2 Linecode=1P_UG_AL_1/0_Brenau_0_416_0_2_2

New Line.l(r:udm7385-udt1854lv) Units=km Length=0.00819593 bus1=udt1854lv.1.2 bus2=udm7385.1.2 switch=n enabled=y phases=2 Linecode=1P_UG_AL_1/0_Brenau_0_416_0_2_2

New Line.l(r:p1ulv4133-udm7388) Units=km Length=0.0180344 bus1=udm7388.1.2 bus2=p1ulv4133.1.2 switch=n enabled=y phases=2 Linecode=1P_UG_AL_1/0_Brenau_0_416_0_2_2

New Line.l(r:udm7388-udt1854lv) Units=km Length=0.007551540000000001 bus1=udt1854lv.1.2 bus2=udm7388.1.2 switch=n enabled=y phases=2 Linecode=1P_UG_AL_1/0_Brenau_0_416_0_2_2

New Line.l(r:p1ulv4135-udt1855lv) Units=km Length=0.042432 bus1=udt1855lv.1.2 bus2=p1ulv4135.1.2 switch=n enabled=y phases=2 Linecode=1P_OH_AL_4/0_Zuzara_0_416_0_2_2

New Line.l(r:p1ulv4147-udt1855lv) Units=km Length=0.0612765 bus1=udt1855lv.1.2 bus2=p1ulv4147.1.2 switch=n enabled=y phases=2 Linecode=1P_OH_AL_4/0_Zuzara_0_416_0_2_2

New Line.l(r:p1ulv4148-udt1855lv) Units=km Length=0.0732522 bus1=udt1855lv.1.2 bus2=p1ulv4148.1.2 switch=n enabled=y phases=2 Linecode=1P_OH_AL_4/0_Zuzara_0_416_0_2_2

New Line.l(r:p1ulv4149-udt1855lv) Units=km Length=0.0794393 bus1=udt1855lv.1.2 bus2=p1ulv4149.1.2 switch=n enabled=y phases=2 Linecode=1P_OH_AL_4/0_Zuzara_0_416_0_2_2

New Line.l(r:p1ulv4136-udm7390) Units=km Length=0.0353954 bus1=udm7390.1.2 bus2=p1ulv4136.1.2 switch=n enabled=y phases=2 Linecode=1P_OH_AL_4/0_Zuzara_0_416_0_2_2

New Line.l(r:p1ulv4137-udm7390) Units=km Length=0.0283668 bus1=udm7390.1.2 bus2=p1ulv4137.1.2 switch=n enabled=y phases=2 Linecode=1P_OH_AL_4/0_Zuzara_0_416_0_2_2

New Line.l(r:p1ulv4138-udm7390) Units=km Length=0.0170437 bus1=udm7390.1.2 bus2=p1ulv4138.1.2 switch=n enabled=y phases=2 Linecode=1P_OH_AL_2/0_Rucina_0_416_0_2_2

New Line.l(r:udm7390-udt1855lv) Units=km Length=0.0140324 bus1=udt1855lv.1.2 bus2=udm7390.1.2 switch=n enabled=y phases=2 Linecode=1P_OH_AL_2/0_Rucina_0_416_0_2_2

New Line.l(r:p1ulv4140-udt1856lv) Units=km Length=0.0343569 bus1=udt1856lv.1.2 bus2=p1ulv4140.1.2 switch=n enabled=y phases=2 Linecode=1P_OH_AL_4/0_Zuzara_0_416_0_2_2

New Line.l(r:p1ulv4141-udt1856lv) Units=km Length=0.026252900000000003 bus1=udt1856lv.1.2 bus2=p1ulv4141.1.2 switch=n enabled=y phases=2 Linecode=1P_OH_AL_2/0_Rucina_0_416_0_2_2

New Line.l(r:p1ulv4139-udm7396) Units=km Length=0.0401257 bus1=udm7396.1.2 bus2=p1ulv4139.1.2 switch=n enabled=y phases=2 Linecode=1P_OH_AL_4/0_Zuzara_0_416_0_2_2

New Line.l(r:p1ulv4142-udm7396) Units=km Length=0.017896 bus1=udm7396.1.2 bus2=p1ulv4142.1.2 switch=n enabled=y phases=2 Linecode=1P_OH_AL_2/0_Rucina_0_416_0_2_2

New Line.l(r:udm7396-udt1856lv) Units=km Length=0.013997 bus1=udt1856lv.1.2 bus2=udm7396.1.2 switch=n enabled=y phases=2 Linecode=1P_OH_AL_2/0_Rucina_0_416_0_2_2

New Line.l(r:p1ulv4145-udm7401) Units=km Length=0.0543863 bus1=udm7401.1.2 bus2=p1ulv4145.1.2 switch=n enabled=y phases=2 Linecode=1P_OH_AL_4/0_Zuzara_0_416_0_2_2

New Line.l(r:p1ulv4146-udm7401) Units=km Length=0.047152400000000004 bus1=udm7401.1.2 bus2=p1ulv4146.1.2 switch=n enabled=y phases=2 Linecode=1P_OH_AL_4/0_Zuzara_0_416_0_2_2

New Line.l(r:p1ulv4144-udm7400) Units=km Length=0.0562963 bus1=udm7400.1.2 bus2=p1ulv4144.1.2 switch=n enabled=y phases=2 Linecode=1P_OH_AL_4/0_Zuzara_0_416_0_2_2

New Line.l(r:udm7400-udm7401) Units=km Length=0.0192478 bus1=udm7401.1.2 bus2=udm7400.1.2 switch=n enabled=y phases=2 Linecode=1P_OH_AL_2/0_Rucina_0_416_0_2_2

New Line.l(r:udm7401-udt1856lv) Units=km Length=0.0140039 bus1=udt1856lv.1.2 bus2=udm7401.1.2 switch=n enabled=y phases=2 Linecode=1P_OH_AL_2/0_Rucina_0_416_0_2_2

New Line.l(r:p1ulv4143-udt1857lv) Units=km Length=0.0533804 bus1=udt1857lv.1.2 bus2=p1ulv4143.1.2 switch=n enabled=y phases=2 Linecode=1P_OH_AL_4/0_Zuzara_0_416_0_2_2

New Line.l(r:p1ulv4155-udt1857lv) Units=km Length=0.10645 bus1=udt1857lv.1.2 bus2=p1ulv4155.1.2 switch=n enabled=y phases=2 Linecode=1P_OH_AL_4/0_Zuzara_0_416_0_2_2

New Line.l(r:p1ulv4156-udm7405) Units=km Length=0.0995048 bus1=udm7405.1.2 bus2=p1ulv4156.1.2 switch=n enabled=y phases=2 Linecode=1P_OH_AL_4/0_Zuzara_0_416_0_2_2

New Line.l(r:p1ulv4157-udm7405) Units=km Length=0.0924315 bus1=udm7405.1.2 bus2=p1ulv4157.1.2 switch=n enabled=y phases=2 Linecode=1P_OH_AL_4/0_Zuzara_0_416_0_2_2

New Line.l(r:p1ulv4158-udm7405) Units=km Length=0.0814785 bus1=udm7405.1.2 bus2=p1ulv4158.1.2 switch=n enabled=y phases=2 Linecode=1P_OH_AL_4/0_Zuzara_0_416_0_2_2

New Line.l(r:udm7405-udt1857lv) Units=km Length=0.0192577 bus1=udt1857lv.1.2 bus2=udm7405.1.2 switch=n enabled=y phases=2 Linecode=1P_OH_AL_2/0_Rucina_0_416_0_2_2

New Line.l(r:p1ulv4150-udt1858lv) Units=km Length=0.0804347 bus1=udt1858lv.1.2 bus2=p1ulv4150.1.2 switch=n enabled=y phases=2 Linecode=1P_OH_AL_4/0_Zuzara_0_416_0_2_2

New Line.l(r:p1ulv4152-udt1858lv) Units=km Length=0.102847 bus1=udt1858lv.1.2 bus2=p1ulv4152.1.2 switch=n enabled=y phases=2 Linecode=1P_OH_AL_4/0_Zuzara_0_416_0_2_2

New Line.l(r:p1ulv4153-udt1858lv) Units=km Length=0.09951040000000001 bus1=udt1858lv.1.2 bus2=p1ulv4153.1.2 switch=n enabled=y phases=2 Linecode=1P_OH_AL_4/0_Zuzara_0_416_0_2_2

New Line.l(r:p1ulv4154-udt1858lv) Units=km Length=0.09568740000000002 bus1=udt1858lv.1.2 bus2=p1ulv4154.1.2 switch=n enabled=y phases=2 Linecode=1P_OH_AL_4/0_Zuzara_0_416_0_2_2

New Line.l(r:p1ulv4151-udm7409) Units=km Length=0.106557 bus1=udm7409.1.2 bus2=p1ulv4151.1.2 switch=n enabled=y phases=2 Linecode=1P_OH_AL_4/0_Zuzara_0_416_0_2_2

New Line.l(r:udm7409-udt1858lv) Units=km Length=0.013997 bus1=udt1858lv.1.2 bus2=udm7409.1.2 switch=n enabled=y phases=2 Linecode=1P_OH_AL_2/0_Rucina_0_416_0_2_2

New Line.l(r:p1ulv4159-udt1859lv) Units=km Length=0.0375028 bus1=udt1859lv.1.2 bus2=p1ulv4159.1.2 switch=n enabled=y phases=2 Linecode=1P_OH_AL_4/0_Zuzara_0_416_0_2_2

New Line.l(r:p1ulv4160-udt1859lv) Units=km Length=0.0310201 bus1=udt1859lv.1.2 bus2=p1ulv4160.1.2 switch=n enabled=y phases=2 Linecode=1P_OH_AL_4/0_Zuzara_0_416_0_2_2

New Line.l(r:p1ulv4161-udt1859lv) Units=km Length=0.0237494 bus1=udt1859lv.1.2 bus2=p1ulv4161.1.2 switch=n enabled=y phases=2 Linecode=1P_OH_AL_2/0_Rucina_0_416_0_2_2

New Line.l(r:p1ulv4162-udt1859lv) Units=km Length=0.0139678 bus1=udt1859lv.1.2 bus2=p1ulv4162.1.2 switch=n enabled=y phases=2 Linecode=1P_OH_AL_2/0_Rucina_0_416_0_2_2

New Line.l(r:p1ulv4163-udt1859lv) Units=km Length=0.0856081 bus1=udt1859lv.1.2 bus2=p1ulv4163.1.2 switch=n enabled=y phases=2 Linecode=1P_OH_AL_4/0_Zuzara_0_416_0_2_2

New Line.l(r:p1ulv4164-udt1859lv) Units=km Length=0.0781147 bus1=udt1859lv.1.2 bus2=p1ulv4164.1.2 switch=n enabled=y phases=2 Linecode=1P_OH_AL_4/0_Zuzara_0_416_0_2_2

New Line.l(r:p1ulv4165-udt1859lv) Units=km Length=0.070828 bus1=udt1859lv.1.2 bus2=p1ulv4165.1.2 switch=n enabled=y phases=2 Linecode=1P_OH_AL_4/0_Zuzara_0_416_0_2_2

New Line.l(r:p1ulv4166-udt1859lv) Units=km Length=0.0579814 bus1=udt1859lv.1.2 bus2=p1ulv4166.1.2 switch=n enabled=y phases=2 Linecode=1P_OH_AL_4/0_Zuzara_0_416_0_2_2

New Line.l(r:p1ulv47130-udt1859lv) Units=km Length=0.10488 bus1=udt1859lv.1.2 bus2=p1ulv47130.1.2 switch=n enabled=y phases=2 Linecode=1P_OH_AL_4/0_Zuzara_0_416_0_2_2

New Line.l(r:p1ulv42292-udm9860) Units=km Length=0.013066800000000002 bus1=udm9860.1.2 bus2=p1ulv42292.1.2 switch=n enabled=y phases=2 Linecode=1P_UG_AL_1/0_Brenau_0_416_0_2_2

New Line.l(r:p1ulv5425-udm9859) Units=km Length=0.0175125 bus1=udm9859.1.2 bus2=p1ulv5425.1.2 switch=n enabled=y phases=2 Linecode=1P_UG_AL_1/0_Brenau_0_416_0_2_2

New Line.l(r:udm9859-udm9860) Units=km Length=0.007723130000000001 bus1=udm9860.1.2 bus2=udm9859.1.2 switch=n enabled=y phases=2 Linecode=1P_UG_AL_1/0_Brenau_0_416_0_2_2

New Line.l(r:udm9860-udt2487lv) Units=km Length=0.007723130000000001 bus1=udt2487lv.1.2 bus2=udm9860.1.2 switch=n enabled=y phases=2 Linecode=1P_UG_AL_2/0_Converse_0_416_0_2_2

New Line.l(r:p1ulv44088-udm9861) Units=km Length=0.00585923 bus1=udm9861.1.2 bus2=p1ulv44088.1.2 switch=n enabled=y phases=2 Linecode=1P_UG_AL_1/0_Brenau_0_416_0_2_2

New Line.l(r:p1ulv47298-udm9861) Units=km Length=0.011387900000000001 bus1=udm9861.1.2 bus2=p1ulv47298.1.2 switch=n enabled=y phases=2 Linecode=1P_UG_AL_1/0_Brenau_0_416_0_2_2

New Line.l(r:p1ulv49144-udm9863) Units=km Length=0.0110239 bus1=udm9863.1.2 bus2=p1ulv49144.1.2 switch=n enabled=y phases=2 Linecode=1P_UG_AL_1/0_Brenau_0_416_0_2_2

New Line.l(r:udm9861-udm9863) Units=km Length=0.00773295 bus1=udm9861.1.2 bus2=udm9863.1.2 switch=n enabled=y phases=2 Linecode=1P_UG_AL_1/0_Brenau_0_416_0_2_2

New Line.l(r:udm9861-udt2487lv) Units=km Length=0.007723130000000001 bus1=udt2487lv.1.2 bus2=udm9861.1.2 switch=n enabled=y phases=2 Linecode=1P_UG_AL_4/0_Sweetbriar_0_416_0_2_2

New Line.l(r:p1ulv5427-udm9869) Units=km Length=0.0125087 bus1=udm9869.1.2 bus2=p1ulv5427.1.2 switch=n enabled=y phases=2 Linecode=1P_UG_AL_1/0_Brenau_0_416_0_2_2

New Line.l(r:p1ulv36602-udm9873) Units=km Length=0.010360700000000002 bus1=udm9873.1.2 bus2=p1ulv36602.1.2 switch=n enabled=y phases=2 Linecode=1P_UG_AL_1/0_Brenau_0_416_0_2_2

New Line.l(r:p1ulv12673-udm9870) Units=km Length=0.00561357 bus1=udm9870.1.2 bus2=p1ulv12673.1.2 switch=n enabled=y phases=2 Linecode=1P_UG_AL_1/0_Brenau_0_416_0_2_2

New Line.l(r:udm9870-udm9873) Units=km Length=0.008615390000000002 bus1=udm9873.1.2 bus2=udm9870.1.2 switch=n enabled=y phases=2 Linecode=1P_UG_AL_1/0_Brenau_0_416_0_2_2

New Line.l(r:udm9869-udm9873) Units=km Length=0.00860754 bus1=udm9869.1.2 bus2=udm9873.1.2 switch=n enabled=y phases=2 Linecode=1P_UG_AL_2/0_Converse_0_416_0_2_2

New Line.l(r:udm9869-udt2489lv) Units=km Length=0.008615390000000002 bus1=udt2489lv.1.2 bus2=udm9869.1.2 switch=n enabled=y phases=2 Linecode=1P_UG_AL_4/0_Sweetbriar_0_416_0_2_2

New Line.l(r:p1ulv31583-udm9872) Units=km Length=0.0132911 bus1=udm9872.1.2 bus2=p1ulv31583.1.2 switch=n enabled=y phases=2 Linecode=1P_UG_AL_1/0_Brenau_0_416_0_2_2

New Line.l(r:p1ulv28347-udm9871) Units=km Length=0.0102433 bus1=udm9871.1.2 bus2=p1ulv28347.1.2 switch=n enabled=y phases=2 Linecode=1P_UG_AL_1/0_Brenau_0_416_0_2_2

New Line.l(r:udm9871-udm9872) Units=km Length=0.00950758 bus1=udm9872.1.2 bus2=udm9871.1.2 switch=n enabled=y phases=2 Linecode=1P_UG_AL_1/0_Brenau_0_416_0_2_2

New Line.l(r:udm9872-udt2489lv) Units=km Length=0.00950758 bus1=udt2489lv.1.2 bus2=udm9872.1.2 switch=n enabled=y phases=2 Linecode=1P_UG_AL_2/0_Converse_0_416_0_2_2

New Line.l(r:p1ulv5431-udt2493lv) Units=km Length=0.0147014 bus1=udt2493lv.1.2 bus2=p1ulv5431.1.2 switch=n enabled=y phases=2 Linecode=1P_OH_AL_2/0_Rucina_0_416_0_2_2

New Line.l(r:p1ulv5433-udm9887) Units=km Length=0.0268797 bus1=udm9887.1.2 bus2=p1ulv5433.1.2 switch=n enabled=y phases=2 Linecode=1P_OH_AL_2/0_Rucina_0_416_0_2_2

New Line.l(r:p1ulv5444-udm9890) Units=km Length=0.0242604 bus1=udm9890.1.2 bus2=p1ulv5444.1.2 switch=n enabled=y phases=2 Linecode=1P_UG_AL_1/0_Brenau_0_416_0_2_2

New Line.l(r:udm9887-udm9890) Units=km Length=0.0195376 bus1=udm9887.1.2 bus2=udm9890.1.2 switch=n enabled=y phases=2 Linecode=1P_OH_AL_2/0_Rucina_0_416_0_2_2

New Line.l(r:udm9887-udt2495lv) Units=km Length=0.0176199 bus1=udt2495lv.1.2 bus2=udm9887.1.2 switch=n enabled=y phases=2 Linecode=1P_OH_AL_2/0_Rucina_0_416_0_2_2

New Line.l(r:p1ulv5436-udm9888) Units=km Length=0.027855600000000005 bus1=udm9888.1.2 bus2=p1ulv5436.1.2 switch=n enabled=y phases=2 Linecode=1P_OH_AL_4/0_Zuzara_0_416_0_2_2

New Line.l(r:p1ulv5437-udm9889) Units=km Length=0.0288154 bus1=udm9889.1.2 bus2=p1ulv5437.1.2 switch=n enabled=y phases=2 Linecode=1P_OH_AL_4/0_Zuzara_0_416_0_2_2

New Line.l(r:udm9888-udm9889) Units=km Length=0.0352398 bus1=udm9888.1.2 bus2=udm9889.1.2 switch=n enabled=y phases=2 Linecode=1P_OH_AL_4/0_Zuzara_0_416_0_2_2

New Line.l(r:udm9888-udt2495lv) Units=km Length=0.0176299 bus1=udt2495lv.1.2 bus2=udm9888.1.2 switch=n enabled=y phases=2 Linecode=1P_OH_AL_2/0_Rucina_0_416_0_2_2

New Line.l(r:p1ulv44394-udt2496lv) Units=km Length=0.0652505 bus1=udt2496lv.1.2 bus2=p1ulv44394.1.2 switch=n enabled=y phases=2 Linecode=1P_UG_AL_1/0_Brenau_0_416_0_2_2

New Line.l(r:p1ulv5434-udm9891) Units=km Length=0.0209404 bus1=udm9891.1.2 bus2=p1ulv5434.1.2 switch=n enabled=y phases=2 Linecode=1P_UG_AL_4/0_Sweetbriar_0_416_0_2_2

New Line.l(r:udm9891-udt2496lv) Units=km Length=0.0386987 bus1=udt2496lv.1.2 bus2=udm9891.1.2 switch=n enabled=y phases=2 Linecode=1P_UG_AL_4/0_Sweetbriar_0_416_0_2_2

New Line.l(r:p1ulv5449-udm9892) Units=km Length=0.036642400000000006 bus1=udm9892.1.2 bus2=p1ulv5449.1.2 switch=n enabled=y phases=2 Linecode=1P_UG_AL_1/0_Brenau_0_416_0_2_2

New Line.l(r:udm9892-udt2496lv) Units=km Length=0.0290142 bus1=udt2496lv.1.2 bus2=udm9892.1.2 switch=n enabled=y phases=2 Linecode=1P_UG_AL_1/0_Brenau_0_416_0_2_2

New Line.l(r:p1ulv5435-udt2497lv) Units=km Length=0.0353287 bus1=udt2497lv.1.2 bus2=p1ulv5435.1.2 switch=n enabled=y phases=2 Linecode=1P_OH_AL_4/0_Zuzara_0_416_0_2_2

New Line.l(r:p1ulv5481-udt2500lv) Units=km Length=0.030596800000000004 bus1=udt2500lv.1.2 bus2=p1ulv5481.1.2 switch=n enabled=y phases=2 Linecode=1P_OH_AL_4/0_Zuzara_0_416_0_2_2

New Line.l(r:p1ulv5440-udm9900) Units=km Length=0.0187124 bus1=udm9900.1.2 bus2=p1ulv5440.1.2 switch=n enabled=y phases=2 Linecode=1P_OH_AL_2/0_Rucina_0_416_0_2_2

New Line.l(r:udm9900-udt2500lv) Units=km Length=0.0100057 bus1=udt2500lv.1.2 bus2=udm9900.1.2 switch=n enabled=y phases=2 Linecode=1P_OH_AL_2/0_Rucina_0_416_0_2_2

New Line.l(r:p1ulv48973-udm9902) Units=km Length=0.0307426 bus1=udm9902.1.2 bus2=p1ulv48973.1.2 switch=n enabled=y phases=2 Linecode=1P_OH_AL_4/0_Zuzara_0_416_0_2_2

New Line.l(r:udm9902-udt2500lv) Units=km Length=0.0126115 bus1=udt2500lv.1.2 bus2=udm9902.1.2 switch=n enabled=y phases=2 Linecode=1P_OH_AL_2/0_Rucina_0_416_0_2_2

New Line.l(r:p1ulv5450-udm9908) Units=km Length=0.018371 bus1=udm9908.1.2 bus2=p1ulv5450.1.2 switch=n enabled=y phases=2 Linecode=1P_UG_AL_1/0_Brenau_0_416_0_2_2

New Line.l(r:udm9908-udt2503lv) Units=km Length=0.0195481 bus1=udt2503lv.1.2 bus2=udm9908.1.2 switch=n enabled=y phases=2 Linecode=1P_UG_AL_1/0_Brenau_0_416_0_2_2

New Line.l(r:p1ulv36122-udm9909) Units=km Length=0.020850100000000003 bus1=udm9909.1.2 bus2=p1ulv36122.1.2 switch=n enabled=y phases=2 Linecode=1P_UG_AL_1/0_Brenau_0_416_0_2_2

New Line.l(r:p1ulv5443-udm9907) Units=km Length=0.0188632 bus1=udm9907.1.2 bus2=p1ulv5443.1.2 switch=n enabled=y phases=2 Linecode=1P_UG_AL_1/0_Brenau_0_416_0_2_2

New Line.l(r:udm9907-udm9909) Units=km Length=0.00976903 bus1=udm9909.1.2 bus2=udm9907.1.2 switch=n enabled=y phases=2 Linecode=1P_UG_AL_1/0_Brenau_0_416_0_2_2

New Line.l(r:udm9909-udt2503lv) Units=km Length=0.00976861 bus1=udt2503lv.1.2 bus2=udm9909.1.2 switch=n enabled=y phases=2 Linecode=1P_UG_AL_1/0_Brenau_0_416_0_2_2

New Line.l(r:p1ulv5446-udt2504lv) Units=km Length=0.0587842 bus1=udt2504lv.1.2 bus2=p1ulv5446.1.2 switch=n enabled=y phases=2 Linecode=1P_OH_AL_4/0_Zuzara_0_416_0_2_2

New Line.l(r:p1ulv5445-udm9910) Units=km Length=0.0335426 bus1=udm9910.1.2 bus2=p1ulv5445.1.2 switch=n enabled=y phases=2 Linecode=1P_OH_AL_4/0_Zuzara_0_416_0_2_2

New Line.l(r:udm9910-udt2504lv) Units=km Length=0.01656 bus1=udt2504lv.1.2 bus2=udm9910.1.2 switch=n enabled=y phases=2 Linecode=1P_OH_AL_2/0_Rucina_0_416_0_2_2

New Line.l(r:p1ulv40952-udm9915) Units=km Length=0.0186778 bus1=udm9915.1.2 bus2=p1ulv40952.1.2 switch=n enabled=y phases=2 Linecode=1P_UG_AL_1/0_Brenau_0_416_0_2_2

New Line.l(r:udm9915-udt2506lv) Units=km Length=0.0195476 bus1=udt2506lv.1.2 bus2=udm9915.1.2 switch=n enabled=y phases=2 Linecode=1P_UG_AL_1/0_Brenau_0_416_0_2_2

New Line.l(r:p1ulv49286-udm9916) Units=km Length=0.0153607 bus1=udm9916.1.2 bus2=p1ulv49286.1.2 switch=n enabled=y phases=2 Linecode=1P_UG_AL_1/0_Brenau_0_416_0_2_2

New Line.l(r:p1ulv5448-udm9914) Units=km Length=0.0126839 bus1=udm9914.1.2 bus2=p1ulv5448.1.2 switch=n enabled=y phases=2 Linecode=1P_UG_AL_1/0_Brenau_0_416_0_2_2

New Line.l(r:udm9914-udm9916) Units=km Length=0.00930121 bus1=udm9916.1.2 bus2=udm9914.1.2 switch=n enabled=y phases=2 Linecode=1P_UG_AL_1/0_Brenau_0_416_0_2_2

New Line.l(r:udm9916-udt2506lv) Units=km Length=0.0283715 bus1=udt2506lv.1.2 bus2=udm9916.1.2 switch=n enabled=y phases=2 Linecode=1P_UG_AL_1/0_Brenau_0_416_0_2_2

New Line.l(r:p1ulv5451-udt2507lv) Units=km Length=0.0185408 bus1=udt2507lv.1.2 bus2=p1ulv5451.1.2 switch=n enabled=y phases=2 Linecode=1P_UG_AL_1/0_Brenau_0_416_0_2_2

New Line.l(r:p1ulv38629-udm9918) Units=km Length=0.0199898 bus1=udm9918.1.2 bus2=p1ulv38629.1.2 switch=n enabled=y phases=2 Linecode=1P_UG_AL_1/0_Brenau_0_416_0_2_2

New Line.l(r:udm9918-udt2507lv) Units=km Length=0.00976903 bus1=udt2507lv.1.2 bus2=udm9918.1.2 switch=n enabled=y phases=2 Linecode=1P_UG_AL_1/0_Brenau_0_416_0_2_2

New Line.l(r:p1ulv5453-udm9920) Units=km Length=0.0276431 bus1=udm9920.1.2 bus2=p1ulv5453.1.2 switch=n enabled=y phases=2 Linecode=1P_UG_AL_1/0_Brenau_0_416_0_2_2

New Line.l(r:p1ulv42230-udm9920) Units=km Length=0.018111800000000004 bus1=udm9920.1.2 bus2=p1ulv42230.1.2 switch=n enabled=y phases=2 Linecode=1P_UG_AL_1/0_Brenau_0_416_0_2_2

New Line.l(r:udm9920-udt2509lv) Units=km Length=0.0195376 bus1=udt2509lv.1.2 bus2=udm9920.1.2 switch=n enabled=y phases=2 Linecode=1P_UG_AL_1/0_Brenau_0_416_0_2_2

New Line.l(r:p1ulv5470-udm9921) Units=km Length=0.0293558 bus1=udm9921.1.2 bus2=p1ulv5470.1.2 switch=n enabled=y phases=2 Linecode=1P_UG_AL_1/0_Brenau_0_416_0_2_2

New Line.l(r:udm9921-udt2509lv) Units=km Length=0.0195376 bus1=udt2509lv.1.2 bus2=udm9921.1.2 switch=n enabled=y phases=2 Linecode=1P_UG_AL_1/0_Brenau_0_416_0_2_2

New Line.l(r:p1ulv5471-udm9960) Units=km Length=0.0165873 bus1=udm9960.1.2 bus2=p1ulv5471.1.2 switch=n enabled=y phases=2 Linecode=1P_UG_AL_1/0_Brenau_0_416_0_2_2

New Line.l(r:udm9960-udt2523lv) Units=km Length=0.0198434 bus1=udt2523lv.1.2 bus2=udm9960.1.2 switch=n enabled=y phases=2 Linecode=1P_UG_AL_1/0_Brenau_0_416_0_2_2

New Line.l(r:p1ulv27361-udm9961) Units=km Length=0.017449 bus1=udm9961.1.2 bus2=p1ulv27361.1.2 switch=n enabled=y phases=2 Linecode=1P_UG_AL_1/0_Brenau_0_416_0_2_2

New Line.l(r:p1ulv30604-udm9961) Units=km Length=0.0330338 bus1=udm9961.1.2 bus2=p1ulv30604.1.2 switch=n enabled=y phases=2 Linecode=1P_UG_AL_1/0_Brenau_0_416_0_2_2

New Line.l(r:udm9961-udt2523lv) Units=km Length=0.00992653 bus1=udt2523lv.1.2 bus2=udm9961.1.2 switch=n enabled=y phases=2 Linecode=1P_UG_AL_1/0_Brenau_0_416_0_2_2

New Line.l(r:p1ulv5474-udt2524lv) Units=km Length=0.035187500000000003 bus1=udt2524lv.1.2 bus2=p1ulv5474.1.2 switch=n enabled=y phases=2 Linecode=1P_OH_AL_4/0_Zuzara_0_416_0_2_2

New Line.l(r:p1ulv31704-udt2524lv) Units=km Length=0.0139769 bus1=udt2524lv.1.2 bus2=p1ulv31704.1.2 switch=n enabled=y phases=2 Linecode=1P_OH_AL_2/0_Rucina_0_416_0_2_2

New Line.l(r:p1ulv5472-udm9963) Units=km Length=0.0354939 bus1=udm9963.1.2 bus2=p1ulv5472.1.2 switch=n enabled=y phases=2 Linecode=1P_OH_AL_4/0_Zuzara_0_416_0_2_2

New Line.l(r:udm9963-udt2524lv) Units=km Length=0.0182123 bus1=udt2524lv.1.2 bus2=udm9963.1.2 switch=n enabled=y phases=2 Linecode=1P_OH_AL_2/0_Rucina_0_416_0_2_2

New Line.l(r:p1ulv5484-udt2530lv) Units=km Length=0.0147072 bus1=udt2530lv.1.2 bus2=p1ulv5484.1.2 switch=n enabled=y phases=2 Linecode=1P_OH_AL_2/0_Rucina_0_416_0_2_2

New Line.l(r:p1ulv5496-udt2530lv) Units=km Length=0.0550927 bus1=udt2530lv.1.2 bus2=p1ulv5496.1.2 switch=n enabled=y phases=2 Linecode=1P_OH_AL_4/0_Zuzara_0_416_0_2_2

New Line.l(r:p1ulv40847-udt2530lv) Units=km Length=0.044740800000000004 bus1=udt2530lv.1.2 bus2=p1ulv40847.1.2 switch=n enabled=y phases=2 Linecode=1P_OH_AL_4/0_Zuzara_0_416_0_2_2

New Line.l(r:p1ulv44090-udt2530lv) Units=km Length=0.0273851 bus1=udt2530lv.1.2 bus2=p1ulv44090.1.2 switch=n enabled=y phases=2 Linecode=1P_OH_AL_4/0_Zuzara_0_416_0_2_2

New Line.l(r:p1ulv5483-udm9983) Units=km Length=0.0176356 bus1=udm9983.1.2 bus2=p1ulv5483.1.2 switch=n enabled=y phases=2 Linecode=1P_OH_AL_2/0_Rucina_0_416_0_2_2

New Line.l(r:udm9983-udt2530lv) Units=km Length=0.0199201 bus1=udt2530lv.1.2 bus2=udm9983.1.2 switch=n enabled=y phases=2 Linecode=1P_OH_AL_2/0_Rucina_0_416_0_2_2

New Line.l(r:p1ulv29695-udm9986) Units=km Length=0.0657848 bus1=udm9986.1.2 bus2=p1ulv29695.1.2 switch=n enabled=y phases=2 Linecode=1P_OH_AL_4/0_Zuzara_0_416_0_2_2

New Line.l(r:udm9986-udt2530lv) Units=km Length=0.0199173 bus1=udt2530lv.1.2 bus2=udm9986.1.2 switch=n enabled=y phases=2 Linecode=1P_OH_AL_2/0_Rucina_0_416_0_2_2

New Line.l(r:p1ulv5499-udt2534lv) Units=km Length=0.026513 bus1=udt2534lv.1.2 bus2=p1ulv5499.1.2 switch=n enabled=y phases=2 Linecode=1P_OH_AL_2/0_Rucina_0_416_0_2_2

New Line.l(r:p1ulv8083-udt2534lv) Units=km Length=0.0115954 bus1=udt2534lv.1.2 bus2=p1ulv8083.1.2 switch=n enabled=y phases=2 Linecode=1P_OH_AL_2/0_Rucina_0_416_0_2_2

New Line.l(r:p1ulv5488-udm9997) Units=km Length=0.00531415 bus1=udm9997.1.2 bus2=p1ulv5488.1.2 switch=n enabled=y phases=2 Linecode=1P_OH_AL_2/0_Rucina_0_416_0_2_2

New Line.l(r:udm9997-udt2534lv) Units=km Length=0.0248099 bus1=udt2534lv.1.2 bus2=udm9997.1.2 switch=n enabled=y phases=2 Linecode=1P_OH_AL_2/0_Rucina_0_416_0_2_2

New Line.l(r:p1ulv5493-udt2538lv) Units=km Length=0.0149113 bus1=udt2538lv.1.2 bus2=p1ulv5493.1.2 switch=n enabled=y phases=2 Linecode=1P_OH_AL_2/0_Rucina_0_416_0_2_2

New Line.l(r:p1ulv36678-udm10012) Units=km Length=0.0165685 bus1=udm10012.1.2 bus2=p1ulv36678.1.2 switch=n enabled=y phases=2 Linecode=1P_OH_AL_2/0_Rucina_0_416_0_2_2

New Line.l(r:udm10012-udt2538lv) Units=km Length=0.0183305 bus1=udt2538lv.1.2 bus2=udm10012.1.2 switch=n enabled=y phases=2 Linecode=1P_OH_AL_2/0_Rucina_0_416_0_2_2

New Line.l(r:p1ulv47484-udm10013) Units=km Length=0.0115581 bus1=udm10013.1.2 bus2=p1ulv47484.1.2 switch=n enabled=y phases=2 Linecode=1P_OH_AL_2/0_Rucina_0_416_0_2_2

New Line.l(r:udm10013-udt2538lv) Units=km Length=0.036668900000000004 bus1=udt2538lv.1.2 bus2=udm10013.1.2 switch=n enabled=y phases=2 Linecode=1P_OH_AL_4/0_Zuzara_0_416_0_2_2

New Line.l(r:p1ulv5494-udm10014) Units=km Length=0.0093906 bus1=udm10014.1.2 bus2=p1ulv5494.1.2 switch=n enabled=y phases=2 Linecode=1P_UG_AL_4/0_Sweetbriar_0_416_0_2_2
