New Line.l(r:p1ulv644-udt335lv) Units=km Length=0.0178886 bus1=udt335lv.1.2 bus2=p1ulv644.1.2 switch=n enabled=y phases=2 Linecode=1P_OH_AL_2/0_Rucina_0_416_0_2_2

New Line.l(r:p1ulv645-udt335lv) Units=km Length=0.0664205 bus1=udt335lv.1.2 bus2=p1ulv645.1.2 switch=n enabled=y phases=2 Linecode=1P_OH_AL_4/0_Zuzara_0_416_0_2_2

New Line.l(r:p1ulv652-udt335lv) Units=km Length=0.0450795 bus1=udt335lv.1.2 bus2=p1ulv652.1.2 switch=n enabled=y phases=2 Linecode=1P_OH_AL_4/0_Zuzara_0_416_0_2_2

New Line.l(r:p1ulv650-udm1301) Units=km Length=0.0452461 bus1=udm1301.1.2 bus2=p1ulv650.1.2 switch=n enabled=y phases=2 Linecode=1P_OH_AL_4/0_Zuzara_0_416_0_2_2

New Line.l(r:p1ulv649-udm1300) Units=km Length=0.0457672 bus1=udm1300.1.2 bus2=p1ulv649.1.2 switch=n enabled=y phases=2 Linecode=1P_OH_AL_4/0_Zuzara_0_416_0_2_2

New Line.l(r:p1ulv655-udm1303) Units=km Length=0.0338477 bus1=udm1303.1.2 bus2=p1ulv655.1.2 switch=n enabled=y phases=2 Linecode=1P_OH_AL_4/0_Zuzara_0_416_0_2_2

New Line.l(r:udm1300-udm1303) Units=km Length=0.021429800000000002 bus1=udm1300.1.2 bus2=udm1303.1.2 switch=n enabled=y phases=2 Linecode=1P_OH_AL_2/0_Rucina_0_416_0_2_2

New Line.l(r:udm1300-udm1301) Units=km Length=0.011515300000000001 bus1=udm1301.1.2 bus2=udm1300.1.2 switch=n enabled=y phases=2 Linecode=1P_OH_AL_2/0_Rucina_0_416_0_2_2

New Line.l(r:udm1301-udt335lv) Units=km Length=0.011515300000000001 bus1=udt335lv.1.2 bus2=udm1301.1.2 switch=n enabled=y phases=2 Linecode=1P_OH_AL_2/0_Rucina_0_416_0_2_2

New Line.l(r:p1ulv2568-udm1305) Units=km Length=0.07118180000000002 bus1=udm1305.1.2 bus2=p1ulv2568.1.2 switch=n enabled=y phases=2 Linecode=1P_OH_AL_4/0_Zuzara_0_416_0_2_2

New Line.l(r:p1ulv2573-udm1305) Units=km Length=0.0273187 bus1=udm1305.1.2 bus2=p1ulv2573.1.2 switch=n enabled=y phases=2 Linecode=1P_OH_AL_4/0_Zuzara_0_416_0_2_2

New Line.l(r:p1ulv2574-udm1305) Units=km Length=0.0310956 bus1=udm1305.1.2 bus2=p1ulv2574.1.2 switch=n enabled=y phases=2 Linecode=1P_OH_AL_4/0_Zuzara_0_416_0_2_2

New Line.l(r:p1ulv2567-udm1304) Units=km Length=0.0710428 bus1=udm1304.1.2 bus2=p1ulv2567.1.2 switch=n enabled=y phases=2 Linecode=1P_OH_AL_4/0_Zuzara_0_416_0_2_2

New Line.l(r:udm1304-udm1305) Units=km Length=0.0135824 bus1=udm1305.1.2 bus2=udm1304.1.2 switch=n enabled=y phases=2 Linecode=1P_OH_AL_2/0_Rucina_0_416_0_2_2

New Line.l(r:udm1305-udt335lv) Units=km Length=0.0135924 bus1=udt335lv.1.2 bus2=udm1305.1.2 switch=n enabled=y phases=2 Linecode=1P_OH_AL_2/0_Rucina_0_416_0_2_2

New Line.l(r:p1ulv662-udt336lv) Units=km Length=0.0649407 bus1=udt336lv.1.2 bus2=p1ulv662.1.2 switch=n enabled=y phases=2 Linecode=1P_UG_AL_1/0_Brenau_0_416_0_2_2

New Line.l(r:p1ulv664-udt336lv) Units=km Length=0.06522960000000001 bus1=udt336lv.1.2 bus2=p1ulv664.1.2 switch=n enabled=y phases=2 Linecode=1P_UG_AL_1/0_Brenau_0_416_0_2_2

New Line.l(r:p1ulv648-udm1310) Units=km Length=0.0658769 bus1=udm1310.1.2 bus2=p1ulv648.1.2 switch=n enabled=y phases=2 Linecode=1P_UG_AL_1/0_Brenau_0_416_0_2_2

New Line.l(r:p1ulv647-udm1309) Units=km Length=0.0664641 bus1=udm1309.1.2 bus2=p1ulv647.1.2 switch=n enabled=y phases=2 Linecode=1P_UG_AL_1/0_Brenau_0_416_0_2_2

New Line.l(r:p1ulv31400-udm1309) Units=km Length=0.0194211 bus1=udm1309.1.2 bus2=p1ulv31400.1.2 switch=n enabled=y phases=2 Linecode=1P_UG_AL_1/0_Brenau_0_416_0_2_2

New Line.l(r:p1ulv646-udm1308) Units=km Length=0.0669154 bus1=udm1308.1.2 bus2=p1ulv646.1.2 switch=n enabled=y phases=2 Linecode=1P_UG_AL_1/0_Brenau_0_416_0_2_2

New Line.l(r:udm1308-udm1309) Units=km Length=0.00846497 bus1=udm1309.1.2 bus2=udm1308.1.2 switch=n enabled=y phases=2 Linecode=1P_UG_AL_1/0_Brenau_0_416_0_2_2

New Line.l(r:udm1309-udm1310) Units=km Length=0.00846532 bus1=udm1310.1.2 bus2=udm1309.1.2 switch=n enabled=y phases=2 Linecode=1P_UG_AL_1/0_Brenau_0_416_0_2_2

New Line.l(r:udm1310-udt336lv) Units=km Length=0.0169303 bus1=udt336lv.1.2 bus2=udm1310.1.2 switch=n enabled=y phases=2 Linecode=1P_UG_AL_4/0_Sweetbriar_0_416_0_2_2

New Line.l(r:p1ulv665-udm1313) Units=km Length=0.065588 bus1=udm1313.1.2 bus2=p1ulv665.1.2 switch=n enabled=y phases=2 Linecode=1P_UG_AL_1/0_Brenau_0_416_0_2_2

New Line.l(r:p1ulv666-udm1314) Units=km Length=0.0807071 bus1=udm1314.1.2 bus2=p1ulv666.1.2 switch=n enabled=y phases=2 Linecode=1P_UG_AL_1/0_Brenau_0_416_0_2_2

New Line.l(r:p1ulv667-udm1314) Units=km Length=0.0713242 bus1=udm1314.1.2 bus2=p1ulv667.1.2 switch=n enabled=y phases=2 Linecode=1P_UG_AL_1/0_Brenau_0_416_0_2_2

New Line.l(r:p1ulv26354-udm1316) Units=km Length=0.019795900000000005 bus1=udm1316.1.2 bus2=p1ulv26354.1.2 switch=n enabled=y phases=2 Linecode=1P_UG_AL_1/0_Brenau_0_416_0_2_2

New Line.l(r:udm1314-udm1316) Units=km Length=0.00753383 bus1=udm1314.1.2 bus2=udm1316.1.2 switch=n enabled=y phases=2 Linecode=1P_UG_AL_1/0_Brenau_0_416_0_2_2

New Line.l(r:udm1313-udm1314) Units=km Length=0.00685945 bus1=udm1313.1.2 bus2=udm1314.1.2 switch=n enabled=y phases=2 Linecode=1P_UG_AL_2/0_Converse_0_416_0_2_2

New Line.l(r:udm1313-udt336lv) Units=km Length=0.00685945 bus1=udt336lv.1.2 bus2=udm1313.1.2 switch=n enabled=y phases=2 Linecode=1P_UG_AL_4/0_Sweetbriar_0_416_0_2_2

New Line.l(r:p1ulv2360-udt1121lv) Units=km Length=0.109423 bus1=udt1121lv.1.2 bus2=p1ulv2360.1.2 switch=n enabled=y phases=2 Linecode=1P_UG_AL_1/0_Brenau_0_416_0_2_2

New Line.l(r:p1ulv2361-udt1121lv) Units=km Length=0.103132 bus1=udt1121lv.1.2 bus2=p1ulv2361.1.2 switch=n enabled=y phases=2 Linecode=1P_UG_AL_1/0_Brenau_0_416_0_2_2

New Line.l(r:p1ulv2362-udt1121lv) Units=km Length=0.0963291 bus1=udt1121lv.1.2 bus2=p1ulv2362.1.2 switch=n enabled=y phases=2 Linecode=1P_UG_AL_1/0_Brenau_0_416_0_2_2

New Line.l(r:p1ulv2363-udt1121lv) Units=km Length=0.0893708 bus1=udt1121lv.1.2 bus2=p1ulv2363.1.2 switch=n enabled=y phases=2 Linecode=1P_UG_AL_1/0_Brenau_0_416_0_2_2

New Line.l(r:p1ulv2368-udt1121lv) Units=km Length=0.0671322 bus1=udt1121lv.1.2 bus2=p1ulv2368.1.2 switch=n enabled=y phases=2 Linecode=1P_UG_AL_1/0_Brenau_0_416_0_2_2

New Line.l(r:p1ulv2369-udt1121lv) Units=km Length=0.0678809 bus1=udt1121lv.1.2 bus2=p1ulv2369.1.2 switch=n enabled=y phases=2 Linecode=1P_UG_AL_1/0_Brenau_0_416_0_2_2

New Line.l(r:p1ulv2370-udt1121lv) Units=km Length=0.0670602 bus1=udt1121lv.1.2 bus2=p1ulv2370.1.2 switch=n enabled=y phases=2 Linecode=1P_UG_AL_1/0_Brenau_0_416_0_2_2

New Line.l(r:p1ulv2382-udt1121lv) Units=km Length=0.04526000000000001 bus1=udt1121lv.1.2 bus2=p1ulv2382.1.2 switch=n enabled=y phases=2 Linecode=1P_UG_AL_1/0_Brenau_0_416_0_2_2

New Line.l(r:p1ulv2383-udt1121lv) Units=km Length=0.0403013 bus1=udt1121lv.1.2 bus2=p1ulv2383.1.2 switch=n enabled=y phases=2 Linecode=1P_UG_AL_1/0_Brenau_0_416_0_2_2

New Line.l(r:p1ulv2384-udt1121lv) Units=km Length=0.0344122 bus1=udt1121lv.1.2 bus2=p1ulv2384.1.2 switch=n enabled=y phases=2 Linecode=1P_UG_AL_1/0_Brenau_0_416_0_2_2

New Line.l(r:p1ulv2387-udt1121lv) Units=km Length=0.0537707 bus1=udt1121lv.1.2 bus2=p1ulv2387.1.2 switch=n enabled=y phases=2 Linecode=1P_UG_AL_1/0_Brenau_0_416_0_2_2

New Line.l(r:p1ulv2364-udt1122lv) Units=km Length=0.06546830000000001 bus1=udt1122lv.1.2 bus2=p1ulv2364.1.2 switch=n enabled=y phases=2 Linecode=1P_OH_AL_4/0_Zuzara_0_416_0_2_2

New Line.l(r:p1ulv2365-udt1122lv) Units=km Length=0.0644737 bus1=udt1122lv.1.2 bus2=p1ulv2365.1.2 switch=n enabled=y phases=2 Linecode=1P_OH_AL_4/0_Zuzara_0_416_0_2_2

New Line.l(r:p1ulv4237-udt1122lv) Units=km Length=0.0864017 bus1=udt1122lv.1.2 bus2=p1ulv4237.1.2 switch=n enabled=y phases=2 Linecode=1P_OH_AL_4/0_Zuzara_0_416_0_2_2

New Line.l(r:p1ulv2367-udt1123lv) Units=km Length=0.0601113 bus1=udt1123lv.1.2 bus2=p1ulv2367.1.2 switch=n enabled=y phases=2 Linecode=1P_OH_AL_4/0_Zuzara_0_416_0_2_2

New Line.l(r:p1ulv2377-udt1123lv) Units=km Length=0.041819 bus1=udt1123lv.1.2 bus2=p1ulv2377.1.2 switch=n enabled=y phases=2 Linecode=1P_OH_AL_4/0_Zuzara_0_416_0_2_2

New Line.l(r:p1ulv2378-udt1123lv) Units=km Length=0.03485400000000001 bus1=udt1123lv.1.2 bus2=p1ulv2378.1.2 switch=n enabled=y phases=2 Linecode=1P_OH_AL_4/0_Zuzara_0_416_0_2_2

New Line.l(r:p1ulv2379-udt1123lv) Units=km Length=0.0296645 bus1=udt1123lv.1.2 bus2=p1ulv2379.1.2 switch=n enabled=y phases=2 Linecode=1P_OH_AL_4/0_Zuzara_0_416_0_2_2

New Line.l(r:p1ulv2380-udt1123lv) Units=km Length=0.022412 bus1=udt1123lv.1.2 bus2=p1ulv2380.1.2 switch=n enabled=y phases=2 Linecode=1P_OH_AL_2/0_Rucina_0_416_0_2_2

New Line.l(r:p1ulv2381-udt1123lv) Units=km Length=0.0124061 bus1=udt1123lv.1.2 bus2=p1ulv2381.1.2 switch=n enabled=y phases=2 Linecode=1P_OH_AL_2/0_Rucina_0_416_0_2_2

New Line.l(r:p1ulv37595-udm4621) Units=km Length=0.0116185 bus1=udm4621.1.2 bus2=p1ulv37595.1.2 switch=n enabled=y phases=2 Linecode=1P_OH_AL_2/0_Rucina_0_416_0_2_2

New Line.l(r:udm4621-udt1123lv) Units=km Length=0.0160398 bus1=udt1123lv.1.2 bus2=udm4621.1.2 switch=n enabled=y phases=2 Linecode=1P_OH_AL_2/0_Rucina_0_416_0_2_2

New Line.l(r:p1ulv2372-udt1124lv) Units=km Length=0.0555131 bus1=udt1124lv.1.2 bus2=p1ulv2372.1.2 switch=n enabled=y phases=2 Linecode=1P_OH_AL_4/0_Zuzara_0_416_0_2_2

New Line.l(r:p1ulv2373-udm4623) Units=km Length=0.0221653 bus1=udm4623.1.2 bus2=p1ulv2373.1.2 switch=n enabled=y phases=2 Linecode=1P_OH_AL_2/0_Rucina_0_416_0_2_2

New Line.l(r:p1ulv2374-udm4623) Units=km Length=0.016245 bus1=udm4623.1.2 bus2=p1ulv2374.1.2 switch=n enabled=y phases=2 Linecode=1P_OH_AL_2/0_Rucina_0_416_0_2_2

New Line.l(r:p1ulv2375-udm4623) Units=km Length=0.0287761 bus1=udm4623.1.2 bus2=p1ulv2375.1.2 switch=n enabled=y phases=2 Linecode=1P_OH_AL_4/0_Zuzara_0_416_0_2_2

New Line.l(r:p1ulv2376-udm4623) Units=km Length=0.0349365 bus1=udm4623.1.2 bus2=p1ulv2376.1.2 switch=n enabled=y phases=2 Linecode=1P_OH_AL_4/0_Zuzara_0_416_0_2_2

New Line.l(r:udm4623-udt1124lv) Units=km Length=0.0161287 bus1=udt1124lv.1.2 bus2=udm4623.1.2 switch=n enabled=y phases=2 Linecode=1P_OH_AL_2/0_Rucina_0_416_0_2_2

New Line.l(r:p1ulv2489-udm4627) Units=km Length=0.024289400000000003 bus1=udm4627.1.2 bus2=p1ulv2489.1.2 switch=n enabled=y phases=2 Linecode=1P_OH_AL_2/0_Rucina_0_416_0_2_2

New Line.l(r:p1ulv2490-udm4627) Units=km Length=0.0304214 bus1=udm4627.1.2 bus2=p1ulv2490.1.2 switch=n enabled=y phases=2 Linecode=1P_OH_AL_4/0_Zuzara_0_416_0_2_2

New Line.l(r:udm4627-udt1124lv) Units=km Length=0.0161211 bus1=udt1124lv.1.2 bus2=udm4627.1.2 switch=n enabled=y phases=2 Linecode=1P_OH_AL_2/0_Rucina_0_416_0_2_2

New Line.l(r:p1ulv2396-udt1125lv) Units=km Length=0.0175503 bus1=udt1125lv.1.2 bus2=p1ulv2396.1.2 switch=n enabled=y phases=2 Linecode=1P_UG_AL_1/0_Brenau_0_416_0_2_2

New Line.l(r:p1ulv2385-udm4629) Units=km Length=0.0296001 bus1=udm4629.1.2 bus2=p1ulv2385.1.2 switch=n enabled=y phases=2 Linecode=1P_UG_AL_1/0_Brenau_0_416_0_2_2

New Line.l(r:p1ulv2386-udm4629) Units=km Length=0.02477 bus1=udm4629.1.2 bus2=p1ulv2386.1.2 switch=n enabled=y phases=2 Linecode=1P_UG_AL_1/0_Brenau_0_416_0_2_2

New Line.l(r:p1ulv2388-udm4629) Units=km Length=0.0514068 bus1=udm4629.1.2 bus2=p1ulv2388.1.2 switch=n enabled=y phases=2 Linecode=1P_UG_AL_1/0_Brenau_0_416_0_2_2

New Line.l(r:p1ulv2401-udm4629) Units=km Length=0.0189421 bus1=udm4629.1.2 bus2=p1ulv2401.1.2 switch=n enabled=y phases=2 Linecode=1P_UG_AL_1/0_Brenau_0_416_0_2_2

New Line.l(r:udm4629-udt1125lv) Units=km Length=0.00732822 bus1=udt1125lv.1.2 bus2=udm4629.1.2 switch=n enabled=y phases=2 Linecode=1P_UG_AL_4/0_Sweetbriar_0_416_0_2_2

New Line.l(r:p1ulv2395-udm4634) Units=km Length=0.0166662 bus1=udm4634.1.2 bus2=p1ulv2395.1.2 switch=n enabled=y phases=2 Linecode=1P_UG_AL_1/0_Brenau_0_416_0_2_2

New Line.l(r:p1ulv2392-udm4632) Units=km Length=0.0155184 bus1=udm4632.1.2 bus2=p1ulv2392.1.2 switch=n enabled=y phases=2 Linecode=1P_UG_AL_1/0_Brenau_0_416_0_2_2

New Line.l(r:p1ulv2393-udm4632) Units=km Length=0.0150818 bus1=udm4632.1.2 bus2=p1ulv2393.1.2 switch=n enabled=y phases=2 Linecode=1P_UG_AL_1/0_Brenau_0_416_0_2_2

New Line.l(r:p1ulv2405-udm4632) Units=km Length=0.0173789 bus1=udm4632.1.2 bus2=p1ulv2405.1.2 switch=n enabled=y phases=2 Linecode=1P_UG_AL_1/0_Brenau_0_416_0_2_2

New Line.l(r:p1ulv2402-udm4637) Units=km Length=0.016327300000000003 bus1=udm4637.1.2 bus2=p1ulv2402.1.2 switch=n enabled=y phases=2 Linecode=1P_UG_AL_1/0_Brenau_0_416_0_2_2

New Line.l(r:p1ulv2403-udm4638) Units=km Length=0.0149851 bus1=udm4638.1.2 bus2=p1ulv2403.1.2 switch=n enabled=y phases=2 Linecode=1P_UG_AL_1/0_Brenau_0_416_0_2_2

New Line.l(r:p1ulv2404-udm4639) Units=km Length=0.0139307 bus1=udm4639.1.2 bus2=p1ulv2404.1.2 switch=n enabled=y phases=2 Linecode=1P_UG_AL_1/0_Brenau_0_416_0_2_2

New Line.l(r:udm4638-udm4639) Units=km Length=0.00802746 bus1=udm4638.1.2 bus2=udm4639.1.2 switch=n enabled=y phases=2 Linecode=1P_UG_AL_1/0_Brenau_0_416_0_2_2

New Line.l(r:udm4637-udm4638) Units=km Length=0.00802746 bus1=udm4637.1.2 bus2=udm4638.1.2 switch=n enabled=y phases=2 Linecode=1P_UG_AL_1/0_Brenau_0_416_0_2_2

New Line.l(r:udm4632-udm4637) Units=km Length=0.00802746 bus1=udm4632.1.2 bus2=udm4637.1.2 switch=n enabled=y phases=2 Linecode=1P_UG_AL_1/0_Brenau_0_416_0_2_2

New Line.l(r:udm4632-udm4634) Units=km Length=0.00732165 bus1=udm4634.1.2 bus2=udm4632.1.2 switch=n enabled=y phases=2 Linecode=1P_UG_AL_4/0_Sweetbriar_0_416_0_2_2

New Line.l(r:udm4634-udt1125lv) Units=km Length=0.00732069 bus1=udt1125lv.1.2 bus2=udm4634.1.2 switch=n enabled=y phases=2 Linecode=1P_UG_AL_4/0_Sweetbriar_0_416_0_2_2

New Line.l(r:p1ulv2389-udt1126lv) Units=km Length=0.050213600000000004 bus1=udt1126lv.1.2 bus2=p1ulv2389.1.2 switch=n enabled=y phases=2 Linecode=1P_UG_AL_1/0_Brenau_0_416_0_2_2

New Line.l(r:p1ulv2390-udt1126lv) Units=km Length=0.0498852 bus1=udt1126lv.1.2 bus2=p1ulv2390.1.2 switch=n enabled=y phases=2 Linecode=1P_UG_AL_1/0_Brenau_0_416_0_2_2

New Line.l(r:p1ulv2397-udt1126lv) Units=km Length=0.038089 bus1=udt1126lv.1.2 bus2=p1ulv2397.1.2 switch=n enabled=y phases=2 Linecode=1P_UG_AL_1/0_Brenau_0_416_0_2_2

New Line.l(r:p1ulv2398-udt1126lv) Units=km Length=0.0332104 bus1=udt1126lv.1.2 bus2=p1ulv2398.1.2 switch=n enabled=y phases=2 Linecode=1P_UG_AL_1/0_Brenau_0_416_0_2_2

New Line.l(r:p1ulv2399-udt1126lv) Units=km Length=0.0279486 bus1=udt1126lv.1.2 bus2=p1ulv2399.1.2 switch=n enabled=y phases=2 Linecode=1P_UG_AL_1/0_Brenau_0_416_0_2_2

New Line.l(r:p1ulv2400-udt1126lv) Units=km Length=0.0237409 bus1=udt1126lv.1.2 bus2=p1ulv2400.1.2 switch=n enabled=y phases=2 Linecode=1P_UG_AL_1/0_Brenau_0_416_0_2_2

New Line.l(r:p1ulv2491-udt1127lv) Units=km Length=0.0381582 bus1=udt1127lv.1.2 bus2=p1ulv2491.1.2 switch=n enabled=y phases=2 Linecode=1P_OH_AL_4/0_Zuzara_0_416_0_2_2

New Line.l(r:p1ulv2540-udt1127lv) Units=km Length=0.0548732 bus1=udt1127lv.1.2 bus2=p1ulv2540.1.2 switch=n enabled=y phases=2 Linecode=1P_OH_AL_4/0_Zuzara_0_416_0_2_2

New Line.l(r:p1ulv2541-udt1127lv) Units=km Length=0.0641319 bus1=udt1127lv.1.2 bus2=p1ulv2541.1.2 switch=n enabled=y phases=2 Linecode=1P_OH_AL_4/0_Zuzara_0_416_0_2_2

New Line.l(r:p1ulv2542-udt1127lv) Units=km Length=0.07235650000000002 bus1=udt1127lv.1.2 bus2=p1ulv2542.1.2 switch=n enabled=y phases=2 Linecode=1P_OH_AL_4/0_Zuzara_0_416_0_2_2

New Line.l(r:p1ulv2543-udt1127lv) Units=km Length=0.0803189 bus1=udt1127lv.1.2 bus2=p1ulv2543.1.2 switch=n enabled=y phases=2 Linecode=1P_OH_AL_4/0_Zuzara_0_416_0_2_2

New Line.l(r:p1ulv2394-udm4647) Units=km Length=0.0137617 bus1=udm4647.1.2 bus2=p1ulv2394.1.2 switch=n enabled=y phases=2 Linecode=1P_OH_AL_2/0_Rucina_0_416_0_2_2

New Line.l(r:p1ulv2488-udm4647) Units=km Length=0.0171325 bus1=udm4647.1.2 bus2=p1ulv2488.1.2 switch=n enabled=y phases=2 Linecode=1P_OH_AL_2/0_Rucina_0_416_0_2_2

New Line.l(r:udm4647-udt1127lv) Units=km Length=0.0161287 bus1=udt1127lv.1.2 bus2=udm4647.1.2 switch=n enabled=y phases=2 Linecode=1P_OH_AL_2/0_Rucina_0_416_0_2_2

New Line.l(r:p1ulv2492-udm4650) Units=km Length=0.0332509 bus1=udm4650.1.2 bus2=p1ulv2492.1.2 switch=n enabled=y phases=2 Linecode=1P_OH_AL_4/0_Zuzara_0_416_0_2_2

New Line.l(r:p1ulv2493-udm4650) Units=km Length=0.040029600000000005 bus1=udm4650.1.2 bus2=p1ulv2493.1.2 switch=n enabled=y phases=2 Linecode=1P_OH_AL_4/0_Zuzara_0_416_0_2_2

New Line.l(r:p1ulv2495-udm4650) Units=km Length=0.0244586 bus1=udm4650.1.2 bus2=p1ulv2495.1.2 switch=n enabled=y phases=2 Linecode=1P_OH_AL_2/0_Rucina_0_416_0_2_2

New Line.l(r:p1ulv2494-udm4652) Units=km Length=0.046495100000000004 bus1=udm4652.1.2 bus2=p1ulv2494.1.2 switch=n enabled=y phases=2 Linecode=1P_OH_AL_4/0_Zuzara_0_416_0_2_2

New Line.l(r:p1ulv2500-udm4652) Units=km Length=0.0582735 bus1=udm4652.1.2 bus2=p1ulv2500.1.2 switch=n enabled=y phases=2 Linecode=1P_OH_AL_4/0_Zuzara_0_416_0_2_2

New Line.l(r:udm4650-udm4652) Units=km Length=0.0161287 bus1=udm4650.1.2 bus2=udm4652.1.2 switch=n enabled=y phases=2 Linecode=1P_OH_AL_2/0_Rucina_0_416_0_2_2

New Line.l(r:udm4650-udt1127lv) Units=km Length=0.0161211 bus1=udt1127lv.1.2 bus2=udm4650.1.2 switch=n enabled=y phases=2 Linecode=1P_OH_AL_2/0_Rucina_0_416_0_2_2

New Line.l(r:p1ulv2406-udt1128lv) Units=km Length=0.040281 bus1=udt1128lv.1.2 bus2=p1ulv2406.1.2 switch=n enabled=y phases=2 Linecode=1P_OH_AL_4/0_Zuzara_0_416_0_2_2

New Line.l(r:p1ulv2413-udt1128lv) Units=km Length=0.0149311 bus1=udt1128lv.1.2 bus2=p1ulv2413.1.2 switch=n enabled=y phases=2 Linecode=1P_OH_AL_2/0_Rucina_0_416_0_2_2

New Line.l(r:p1ulv2414-udt1128lv) Units=km Length=0.0214245 bus1=udt1128lv.1.2 bus2=p1ulv2414.1.2 switch=n enabled=y phases=2 Linecode=1P_OH_AL_2/0_Rucina_0_416_0_2_2

New Line.l(r:p1ulv2415-udt1128lv) Units=km Length=0.0277312 bus1=udt1128lv.1.2 bus2=p1ulv2415.1.2 switch=n enabled=y phases=2 Linecode=1P_OH_AL_4/0_Zuzara_0_416_0_2_2

New Line.l(r:p1ulv5567-udm4663) Units=km Length=0.0352853 bus1=udm4663.1.2 bus2=p1ulv5567.1.2 switch=n enabled=y phases=2 Linecode=1P_OH_AL_4/0_Zuzara_0_416_0_2_2

New Line.l(r:p1ulv5568-udm4663) Units=km Length=0.04221570000000001 bus1=udm4663.1.2 bus2=p1ulv5568.1.2 switch=n enabled=y phases=2 Linecode=1P_OH_AL_4/0_Zuzara_0_416_0_2_2

New Line.l(r:p1ulv5569-udm4663) Units=km Length=0.0484882 bus1=udm4663.1.2 bus2=p1ulv5569.1.2 switch=n enabled=y phases=2 Linecode=1P_OH_AL_4/0_Zuzara_0_416_0_2_2

New Line.l(r:udm4663-udt1128lv) Units=km Length=0.0191296 bus1=udt1128lv.1.2 bus2=udm4663.1.2 switch=n enabled=y phases=2 Linecode=1P_OH_AL_2/0_Rucina_0_416_0_2_2

New Line.l(r:p1ulv2407-udt1129lv) Units=km Length=0.0375939 bus1=udt1129lv.1.2 bus2=p1ulv2407.1.2 switch=n enabled=y phases=2 Linecode=1P_OH_AL_4/0_Zuzara_0_416_0_2_2

New Line.l(r:p1ulv2408-udt1129lv) Units=km Length=0.0306045 bus1=udt1129lv.1.2 bus2=p1ulv2408.1.2 switch=n enabled=y phases=2 Linecode=1P_OH_AL_4/0_Zuzara_0_416_0_2_2

New Line.l(r:p1ulv2409-udt1129lv) Units=km Length=0.024280000000000003 bus1=udt1129lv.1.2 bus2=p1ulv2409.1.2 switch=n enabled=y phases=2 Linecode=1P_OH_AL_2/0_Rucina_0_416_0_2_2

New Line.l(r:p1ulv2410-udt1130lv) Units=km Length=0.0144121 bus1=udt1130lv.1.2 bus2=p1ulv2410.1.2 switch=n enabled=y phases=2 Linecode=1P_OH_AL_2/0_Rucina_0_416_0_2_2

New Line.l(r:p1ulv2420-udt1130lv) Units=km Length=0.0140559 bus1=udt1130lv.1.2 bus2=p1ulv2420.1.2 switch=n enabled=y phases=2 Linecode=1P_OH_AL_2/0_Rucina_0_416_0_2_2

New Line.l(r:p1ulv2411-udm4670) Units=km Length=0.0150889 bus1=udm4670.1.2 bus2=p1ulv2411.1.2 switch=n enabled=y phases=2 Linecode=1P_OH_AL_2/0_Rucina_0_416_0_2_2

New Line.l(r:udm4670-udt1130lv) Units=km Length=0.026648000000000005 bus1=udt1130lv.1.2 bus2=udm4670.1.2 switch=n enabled=y phases=2 Linecode=1P_OH_AL_2/0_Rucina_0_416_0_2_2

New Line.l(r:p1ulv2412-udt1131lv) Units=km Length=0.0147483 bus1=udt1131lv.1.2 bus2=p1ulv2412.1.2 switch=n enabled=y phases=2 Linecode=1P_OH_AL_2/0_Rucina_0_416_0_2_2

New Line.l(r:p1ulv2416-udt1132lv) Units=km Length=0.023481500000000002 bus1=udt1132lv.1.2 bus2=p1ulv2416.1.2 switch=n enabled=y phases=2 Linecode=1P_OH_AL_2/0_Rucina_0_416_0_2_2

New Line.l(r:p1ulv2418-udt1132lv) Units=km Length=0.0238468 bus1=udt1132lv.1.2 bus2=p1ulv2418.1.2 switch=n enabled=y phases=2 Linecode=1P_OH_AL_2/0_Rucina_0_416_0_2_2

New Line.l(r:p1ulv2423-udt1133lv) Units=km Length=0.0379379 bus1=udt1133lv.1.2 bus2=p1ulv2423.1.2 switch=n enabled=y phases=2 Linecode=1P_OH_AL_4/0_Zuzara_0_416_0_2_2

New Line.l(r:p1ulv2424-udt1133lv) Units=km Length=0.037734 bus1=udt1133lv.1.2 bus2=p1ulv2424.1.2 switch=n enabled=y phases=2 Linecode=1P_OH_AL_4/0_Zuzara_0_416_0_2_2

New Line.l(r:p1ulv2419-udm4675) Units=km Length=0.021042 bus1=udm4675.1.2 bus2=p1ulv2419.1.2 switch=n enabled=y phases=2 Linecode=1P_OH_AL_2/0_Rucina_0_416_0_2_2

New Line.l(r:p1ulv2426-udm4675) Units=km Length=0.0376542 bus1=udm4675.1.2 bus2=p1ulv2426.1.2 switch=n enabled=y phases=2 Linecode=1P_OH_AL_4/0_Zuzara_0_416_0_2_2

New Line.l(r:udm4675-udt1133lv) Units=km Length=0.0191213 bus1=udt1133lv.1.2 bus2=udm4675.1.2 switch=n enabled=y phases=2 Linecode=1P_OH_AL_2/0_Rucina_0_416_0_2_2

New Line.l(r:p1ulv2421-udm4676) Units=km Length=0.0379739 bus1=udm4676.1.2 bus2=p1ulv2421.1.2 switch=n enabled=y phases=2 Linecode=1P_OH_AL_4/0_Zuzara_0_416_0_2_2

New Line.l(r:p1ulv5549-udm4676) Units=km Length=0.0717672 bus1=udm4676.1.2 bus2=p1ulv5549.1.2 switch=n enabled=y phases=2 Linecode=1P_OH_AL_4/0_Zuzara_0_416_0_2_2

New Line.l(r:p1ulv5550-udm4676) Units=km Length=0.0654329 bus1=udm4676.1.2 bus2=p1ulv5550.1.2 switch=n enabled=y phases=2 Linecode=1P_OH_AL_4/0_Zuzara_0_416_0_2_2

New Line.l(r:udm4676-udt1133lv) Units=km Length=0.0191296 bus1=udt1133lv.1.2 bus2=udm4676.1.2 switch=n enabled=y phases=2 Linecode=1P_OH_AL_2/0_Rucina_0_416_0_2_2

New Line.l(r:p1ulv2427-udt1134lv) Units=km Length=0.0175976 bus1=udt1134lv.1.2 bus2=p1ulv2427.1.2 switch=n enabled=y phases=2 Linecode=1P_OH_AL_2/0_Rucina_0_416_0_2_2

New Line.l(r:p1ulv2428-udt1134lv) Units=km Length=0.0171055 bus1=udt1134lv.1.2 bus2=p1ulv2428.1.2 switch=n enabled=y phases=2 Linecode=1P_OH_AL_2/0_Rucina_0_416_0_2_2

New Line.l(r:p1ulv2429-udt1135lv) Units=km Length=0.0162261 bus1=udt1135lv.1.2 bus2=p1ulv2429.1.2 switch=n enabled=y phases=2 Linecode=1P_OH_AL_2/0_Rucina_0_416_0_2_2

New Line.l(r:p1ulv2430-udt1136lv) Units=km Length=0.0341496 bus1=udt1136lv.1.2 bus2=p1ulv2430.1.2 switch=n enabled=y phases=2 Linecode=1P_OH_AL_4/0_Zuzara_0_416_0_2_2

New Line.l(r:p1ulv2431-udt1136lv) Units=km Length=0.0398259 bus1=udt1136lv.1.2 bus2=p1ulv2431.1.2 switch=n enabled=y phases=2 Linecode=1P_OH_AL_4/0_Zuzara_0_416_0_2_2

New Line.l(r:p1ulv2432-udt1136lv) Units=km Length=0.046294 bus1=udt1136lv.1.2 bus2=p1ulv2432.1.2 switch=n enabled=y phases=2 Linecode=1P_OH_AL_4/0_Zuzara_0_416_0_2_2

New Line.l(r:p1ulv2433-udt1136lv) Units=km Length=0.0528063 bus1=udt1136lv.1.2 bus2=p1ulv2433.1.2 switch=n enabled=y phases=2 Linecode=1P_OH_AL_4/0_Zuzara_0_416_0_2_2

New Line.l(r:p1ulv2434-udt1136lv) Units=km Length=0.059442 bus1=udt1136lv.1.2 bus2=p1ulv2434.1.2 switch=n enabled=y phases=2 Linecode=1P_OH_AL_4/0_Zuzara_0_416_0_2_2

New Line.l(r:p1ulv2436-udt1136lv) Units=km Length=0.0257308 bus1=udt1136lv.1.2 bus2=p1ulv2436.1.2 switch=n enabled=y phases=2 Linecode=1P_OH_AL_2/0_Rucina_0_416_0_2_2

New Line.l(r:p1ulv5547-udm4692) Units=km Length=0.0736537 bus1=udm4692.1.2 bus2=p1ulv5547.1.2 switch=n enabled=y phases=2 Linecode=1P_OH_AL_4/0_Zuzara_0_416_0_2_2

New Line.l(r:p1ulv5548-udm4692) Units=km Length=0.073335 bus1=udm4692.1.2 bus2=p1ulv5548.1.2 switch=n enabled=y phases=2 Linecode=1P_OH_AL_4/0_Zuzara_0_416_0_2_2

New Line.l(r:p1ulv2437-udm4691) Units=km Length=0.0735907 bus1=udm4691.1.2 bus2=p1ulv2437.1.2 switch=n enabled=y phases=2 Linecode=1P_OH_AL_4/0_Zuzara_0_416_0_2_2

New Line.l(r:udm4691-udm4692) Units=km Length=0.019389 bus1=udm4692.1.2 bus2=udm4691.1.2 switch=n enabled=y phases=2 Linecode=1P_OH_AL_2/0_Rucina_0_416_0_2_2

New Line.l(r:udm4692-udt1136lv) Units=km Length=0.0193872 bus1=udt1136lv.1.2 bus2=udm4692.1.2 switch=n enabled=y phases=2 Linecode=1P_OH_AL_2/0_Rucina_0_416_0_2_2

New Line.l(r:p1ulv5535-udt1137lv) Units=km Length=0.0377783 bus1=udt1137lv.1.2 bus2=p1ulv5535.1.2 switch=n enabled=y phases=2 Linecode=1P_OH_AL_4/0_Zuzara_0_416_0_2_2

New Line.l(r:p1ulv5536-udt1137lv) Units=km Length=0.0440767 bus1=udt1137lv.1.2 bus2=p1ulv5536.1.2 switch=n enabled=y phases=2 Linecode=1P_OH_AL_4/0_Zuzara_0_416_0_2_2

New Line.l(r:p1ulv5544-udt1137lv) Units=km Length=0.0778908 bus1=udt1137lv.1.2 bus2=p1ulv5544.1.2 switch=n enabled=y phases=2 Linecode=1P_OH_AL_4/0_Zuzara_0_416_0_2_2

New Line.l(r:p1ulv5545-udt1137lv) Units=km Length=0.0784993 bus1=udt1137lv.1.2 bus2=p1ulv5545.1.2 switch=n enabled=y phases=2 Linecode=1P_OH_AL_4/0_Zuzara_0_416_0_2_2

New Line.l(r:p1ulv5546-udt1137lv) Units=km Length=0.07994890000000002 bus1=udt1137lv.1.2 bus2=p1ulv5546.1.2 switch=n enabled=y phases=2 Linecode=1P_OH_AL_4/0_Zuzara_0_416_0_2_2

New Line.l(r:p1ulv2438-udm4694) Units=km Length=0.0439835 bus1=udm4694.1.2 bus2=p1ulv2438.1.2 switch=n enabled=y phases=2 Linecode=1P_OH_AL_4/0_Zuzara_0_416_0_2_2

New Line.l(r:p1ulv2439-udm4694) Units=km Length=0.0456622 bus1=udm4694.1.2 bus2=p1ulv2439.1.2 switch=n enabled=y phases=2 Linecode=1P_OH_AL_4/0_Zuzara_0_416_0_2_2

New Line.l(r:udm4694-udt1137lv) Units=km Length=0.0192019 bus1=udt1137lv.1.2 bus2=udm4694.1.2 switch=n enabled=y phases=2 Linecode=1P_OH_AL_2/0_Rucina_0_416_0_2_2

New Line.l(r:p1ulv2440-udm4701) Units=km Length=0.04602900000000001 bus1=udm4701.1.2 bus2=p1ulv2440.1.2 switch=n enabled=y phases=2 Linecode=1P_OH_AL_4/0_Zuzara_0_416_0_2_2

New Line.l(r:p1ulv2441-udm4701) Units=km Length=0.0467657 bus1=udm4701.1.2 bus2=p1ulv2441.1.2 switch=n enabled=y phases=2 Linecode=1P_OH_AL_4/0_Zuzara_0_416_0_2_2

New Line.l(r:p1ulv2442-udm4701) Units=km Length=0.0483432 bus1=udm4701.1.2 bus2=p1ulv2442.1.2 switch=n enabled=y phases=2 Linecode=1P_OH_AL_4/0_Zuzara_0_416_0_2_2

New Line.l(r:udm4701-udt1138lv) Units=km Length=0.019202000000000004 bus1=udt1138lv.1.2 bus2=udm4701.1.2 switch=n enabled=y phases=2 Linecode=1P_OH_AL_2/0_Rucina_0_416_0_2_2

New Line.l(r:p1ulv5532-udm4704) Units=km Length=0.0205437 bus1=udm4704.1.2 bus2=p1ulv5532.1.2 switch=n enabled=y phases=2 Linecode=1P_OH_AL_2/0_Rucina_0_416_0_2_2

New Line.l(r:p1ulv5533-udm4704) Units=km Length=0.0266757 bus1=udm4704.1.2 bus2=p1ulv5533.1.2 switch=n enabled=y phases=2 Linecode=1P_OH_AL_2/0_Rucina_0_416_0_2_2

New Line.l(r:p1ulv5534-udm4704) Units=km Length=0.0319088 bus1=udm4704.1.2 bus2=p1ulv5534.1.2 switch=n enabled=y phases=2 Linecode=1P_OH_AL_4/0_Zuzara_0_416_0_2_2

New Line.l(r:p1ulv42649-udm4704) Units=km Length=0.016371 bus1=udm4704.1.2 bus2=p1ulv42649.1.2 switch=n enabled=y phases=2 Linecode=1P_OH_AL_2/0_Rucina_0_416_0_2_2

New Line.l(r:udm4704-udt1138lv) Units=km Length=0.0192019 bus1=udt1138lv.1.2 bus2=udm4704.1.2 switch=n enabled=y phases=2 Linecode=1P_OH_AL_2/0_Rucina_0_416_0_2_2

New Line.l(r:p1ulv2443-udt1139lv) Units=km Length=0.0483158 bus1=udt1139lv.1.2 bus2=p1ulv2443.1.2 switch=n enabled=y phases=2 Linecode=1P_OH_AL_4/0_Zuzara_0_416_0_2_2

New Line.l(r:p1ulv2444-udt1139lv) Units=km Length=0.0308354 bus1=udt1139lv.1.2 bus2=p1ulv2444.1.2 switch=n enabled=y phases=2 Linecode=1P_OH_AL_4/0_Zuzara_0_416_0_2_2

New Line.l(r:p1ulv2446-udt1139lv) Units=km Length=0.0317113 bus1=udt1139lv.1.2 bus2=p1ulv2446.1.2 switch=n enabled=y phases=2 Linecode=1P_OH_AL_4/0_Zuzara_0_416_0_2_2

New Line.l(r:p1ulv2447-udm4711) Units=km Length=0.0316482 bus1=udm4711.1.2 bus2=p1ulv2447.1.2 switch=n enabled=y phases=2 Linecode=1P_OH_AL_4/0_Zuzara_0_416_0_2_2

New Line.l(r:udm4711-udt1139lv) Units=km Length=0.019389 bus1=udt1139lv.1.2 bus2=udm4711.1.2 switch=n enabled=y phases=2 Linecode=1P_OH_AL_2/0_Rucina_0_416_0_2_2

New Line.l(r:p1ulv2448-udt1140lv) Units=km Length=0.030377100000000004 bus1=udt1140lv.1.2 bus2=p1ulv2448.1.2 switch=n enabled=y phases=2 Linecode=1P_OH_AL_4/0_Zuzara_0_416_0_2_2

New Line.l(r:p1ulv2449-udt1140lv) Units=km Length=0.0231817 bus1=udt1140lv.1.2 bus2=p1ulv2449.1.2 switch=n enabled=y phases=2 Linecode=1P_OH_AL_2/0_Rucina_0_416_0_2_2

New Line.l(r:p1ulv40549-udt1140lv) Units=km Length=0.0177834 bus1=udt1140lv.1.2 bus2=p1ulv40549.1.2 switch=n enabled=y phases=2 Linecode=1P_OH_AL_2/0_Rucina_0_416_0_2_2

New Line.l(r:p1ulv2450-udt1141lv) Units=km Length=0.0292334 bus1=udt1141lv.1.2 bus2=p1ulv2450.1.2 switch=n enabled=y phases=2 Linecode=1P_OH_AL_4/0_Zuzara_0_416_0_2_2

New Line.l(r:p1ulv2451-udt1141lv) Units=km Length=0.0310946 bus1=udt1141lv.1.2 bus2=p1ulv2451.1.2 switch=n enabled=y phases=2 Linecode=1P_OH_AL_4/0_Zuzara_0_416_0_2_2

New Line.l(r:p1ulv2453-udt1141lv) Units=km Length=0.0558052 bus1=udt1141lv.1.2 bus2=p1ulv2453.1.2 switch=n enabled=y phases=2 Linecode=1P_OH_AL_4/0_Zuzara_0_416_0_2_2

New Line.l(r:p1ulv2454-udt1141lv) Units=km Length=0.0568672 bus1=udt1141lv.1.2 bus2=p1ulv2454.1.2 switch=n enabled=y phases=2 Linecode=1P_OH_AL_4/0_Zuzara_0_416_0_2_2

New Line.l(r:p1ulv2452-udm4717) Units=km Length=0.0313995 bus1=udm4717.1.2 bus2=p1ulv2452.1.2 switch=n enabled=y phases=2 Linecode=1P_OH_AL_4/0_Zuzara_0_416_0_2_2

New Line.l(r:p1ulv2455-udm4717) Units=km Length=0.0580095 bus1=udm4717.1.2 bus2=p1ulv2455.1.2 switch=n enabled=y phases=2 Linecode=1P_OH_AL_4/0_Zuzara_0_416_0_2_2

New Line.l(r:p1ulv2456-udm4717) Units=km Length=0.053789 bus1=udm4717.1.2 bus2=p1ulv2456.1.2 switch=n enabled=y phases=2 Linecode=1P_OH_AL_4/0_Zuzara_0_416_0_2_2

New Line.l(r:udm4717-udt1141lv) Units=km Length=0.013393600000000002 bus1=udt1141lv.1.2 bus2=udm4717.1.2 switch=n enabled=y phases=2 Linecode=1P_OH_AL_2/0_Rucina_0_416_0_2_2

New Line.l(r:p1ulv2457-udt1142lv) Units=km Length=0.0743783 bus1=udt1142lv.1.2 bus2=p1ulv2457.1.2 switch=n enabled=y phases=2 Linecode=1P_OH_AL_4/0_Zuzara_0_416_0_2_2

New Line.l(r:p1ulv2481-udt1142lv) Units=km Length=0.0512743 bus1=udt1142lv.1.2 bus2=p1ulv2481.1.2 switch=n enabled=y phases=2 Linecode=1P_OH_AL_4/0_Zuzara_0_416_0_2_2

New Line.l(r:p1ulv2482-udt1142lv) Units=km Length=0.0500771 bus1=udt1142lv.1.2 bus2=p1ulv2482.1.2 switch=n enabled=y phases=2 Linecode=1P_OH_AL_4/0_Zuzara_0_416_0_2_2

New Line.l(r:p1ulv2483-udt1142lv) Units=km Length=0.0457344 bus1=udt1142lv.1.2 bus2=p1ulv2483.1.2 switch=n enabled=y phases=2 Linecode=1P_OH_AL_4/0_Zuzara_0_416_0_2_2
