New Line.l(r:p1ulv23725-udt989lv) Units=km Length=0.0197646 bus1=udt989lv.1.2 bus2=p1ulv23725.1.2 switch=n enabled=y phases=2 Linecode=1P_UG_AL_1/0_Brenau_0_416_0_2_2

New Line.l(r:p1ulv1851-udm4024) Units=km Length=0.020648 bus1=udm4024.1.2 bus2=p1ulv1851.1.2 switch=n enabled=y phases=2 Linecode=1P_UG_AL_1/0_Brenau_0_416_0_2_2

New Line.l(r:p1ulv21512-udm4028) Units=km Length=0.0197243 bus1=udm4028.1.2 bus2=p1ulv21512.1.2 switch=n enabled=y phases=2 Linecode=1P_UG_AL_1/0_Brenau_0_416_0_2_2

New Line.l(r:p1ulv22168-udm4028) Units=km Length=0.0209575 bus1=udm4028.1.2 bus2=p1ulv22168.1.2 switch=n enabled=y phases=2 Linecode=1P_UG_AL_1/0_Brenau_0_416_0_2_2

New Line.l(r:udm4024-udm4028) Units=km Length=0.00976 bus1=udm4024.1.2 bus2=udm4028.1.2 switch=n enabled=y phases=2 Linecode=1P_UG_AL_1/0_Brenau_0_416_0_2_2

New Line.l(r:udm4024-udt989lv) Units=km Length=0.00977001 bus1=udt989lv.1.2 bus2=udm4024.1.2 switch=n enabled=y phases=2 Linecode=1P_UG_AL_1/0_Brenau_0_416_0_2_2

New Line.l(r:p1ulv6294-udm4025) Units=km Length=0.0189136 bus1=udm4025.1.2 bus2=p1ulv6294.1.2 switch=n enabled=y phases=2 Linecode=1P_UG_AL_1/0_Brenau_0_416_0_2_2

New Line.l(r:p1ulv6295-udm4025) Units=km Length=0.019887 bus1=udm4025.1.2 bus2=p1ulv6295.1.2 switch=n enabled=y phases=2 Linecode=1P_UG_AL_1/0_Brenau_0_416_0_2_2

New Line.l(r:p1ulv18775-udm4025) Units=km Length=0.023667100000000003 bus1=udm4025.1.2 bus2=p1ulv18775.1.2 switch=n enabled=y phases=2 Linecode=1P_UG_AL_1/0_Brenau_0_416_0_2_2

New Line.l(r:udm4025-udt989lv) Units=km Length=0.01953 bus1=udt989lv.1.2 bus2=udm4025.1.2 switch=n enabled=y phases=2 Linecode=1P_UG_AL_4/0_Sweetbriar_0_416_0_2_2

New Line.l(r:p1ulv1856-udt991lv) Units=km Length=0.025974500000000005 bus1=udt991lv.1.2 bus2=p1ulv1856.1.2 switch=n enabled=y phases=2 Linecode=1P_UG_AL_1/0_Brenau_0_416_0_2_2

New Line.l(r:p1ulv7374-udt991lv) Units=km Length=0.0287269 bus1=udt991lv.1.2 bus2=p1ulv7374.1.2 switch=n enabled=y phases=2 Linecode=1P_UG_AL_1/0_Brenau_0_416_0_2_2

New Line.l(r:p1ulv1854-udm4034) Units=km Length=0.0276943 bus1=udm4034.1.2 bus2=p1ulv1854.1.2 switch=n enabled=y phases=2 Linecode=1P_UG_AL_1/0_Brenau_0_416_0_2_2

New Line.l(r:udm4034-udt991lv) Units=km Length=0.00957002 bus1=udt991lv.1.2 bus2=udm4034.1.2 switch=n enabled=y phases=2 Linecode=1P_UG_AL_1/0_Brenau_0_416_0_2_2

New Line.l(r:p1ulv1874-udm4083) Units=km Length=0.0288471 bus1=udm4083.1.2 bus2=p1ulv1874.1.2 switch=n enabled=y phases=2 Linecode=1P_OH_AL_4/0_Zuzara_0_416_0_2_2

New Line.l(r:p1ulv1875-udm4083) Units=km Length=0.0281695 bus1=udm4083.1.2 bus2=p1ulv1875.1.2 switch=n enabled=y phases=2 Linecode=1P_OH_AL_4/0_Zuzara_0_416_0_2_2

New Line.l(r:udm4083-udt1005lv) Units=km Length=0.01854 bus1=udt1005lv.1.2 bus2=udm4083.1.2 switch=n enabled=y phases=2 Linecode=1P_OH_AL_2/0_Rucina_0_416_0_2_2

New Line.l(r:p1ulv20725-udm4085) Units=km Length=0.0300177 bus1=udm4085.1.2 bus2=p1ulv20725.1.2 switch=n enabled=y phases=2 Linecode=1P_OH_AL_4/0_Zuzara_0_416_0_2_2

New Line.l(r:udm4085-udt1005lv) Units=km Length=0.0370901 bus1=udt1005lv.1.2 bus2=udm4085.1.2 switch=n enabled=y phases=2 Linecode=1P_OH_AL_4/0_Zuzara_0_416_0_2_2

New Line.l(r:p1ulv16988-udm11453) Units=km Length=0.0196421 bus1=udm11453.1.2 bus2=p1ulv16988.1.2 switch=n enabled=y phases=2 Linecode=1P_UG_AL_1/0_Brenau_0_416_0_2_2

New Line.l(r:p1ulv6293-udm11452) Units=km Length=0.0293775 bus1=udm11452.1.2 bus2=p1ulv6293.1.2 switch=n enabled=y phases=2 Linecode=1P_UG_AL_1/0_Brenau_0_416_0_2_2

New Line.l(r:udm11452-udm11453) Units=km Length=0.00977 bus1=udm11453.1.2 bus2=udm11452.1.2 switch=n enabled=y phases=2 Linecode=1P_UG_AL_1/0_Brenau_0_416_0_2_2

New Line.l(r:udm11453-udt2861lv) Units=km Length=0.00976001 bus1=udt2861lv.1.2 bus2=udm11453.1.2 switch=n enabled=y phases=2 Linecode=1P_UG_AL_1/0_Brenau_0_416_0_2_2

New Line.l(r:p1ulv18395-udm11454) Units=km Length=0.00994019 bus1=udm11454.1.2 bus2=p1ulv18395.1.2 switch=n enabled=y phases=2 Linecode=1P_UG_AL_1/0_Brenau_0_416_0_2_2

New Line.l(r:p1ulv34320-udm11455) Units=km Length=0.0137832 bus1=udm11455.1.2 bus2=p1ulv34320.1.2 switch=n enabled=y phases=2 Linecode=1P_UG_AL_1/0_Brenau_0_416_0_2_2

New Line.l(r:udm11454-udm11455) Units=km Length=0.0689588 bus1=udm11454.1.2 bus2=udm11455.1.2 switch=n enabled=y phases=2 Linecode=1P_UG_AL_1/0_Brenau_0_416_0_2_2

New Line.l(r:udm11454-udt2861lv) Units=km Length=0.0488741 bus1=udt2861lv.1.2 bus2=udm11454.1.2 switch=n enabled=y phases=2 Linecode=1P_UG_AL_1/0_Brenau_0_416_0_2_2

New Line.l(r:p1ulv7988-udm11597) Units=km Length=0.010894 bus1=udm11597.1.2 bus2=p1ulv7988.1.2 switch=n enabled=y phases=2 Linecode=1P_UG_AL_1/0_Brenau_0_416_0_2_2

New Line.l(r:p1ulv32740-udm11597) Units=km Length=0.0134016 bus1=udm11597.1.2 bus2=p1ulv32740.1.2 switch=n enabled=y phases=2 Linecode=1P_UG_AL_1/0_Brenau_0_416_0_2_2

New Line.l(r:udm11597-udt2899lv) Units=km Length=0.0281562 bus1=udt2899lv.1.2 bus2=udm11597.1.2 switch=n enabled=y phases=2 Linecode=1P_UG_AL_4/0_Sweetbriar_0_416_0_2_2

New Line.l(r:p1ulv17329-udm11599) Units=km Length=0.0208747 bus1=udm11599.1.2 bus2=p1ulv17329.1.2 switch=n enabled=y phases=2 Linecode=1P_UG_AL_1/0_Brenau_0_416_0_2_2

New Line.l(r:p1ulv7991-udm11598) Units=km Length=0.0203588 bus1=udm11598.1.2 bus2=p1ulv7991.1.2 switch=n enabled=y phases=2 Linecode=1P_UG_AL_1/0_Brenau_0_416_0_2_2

New Line.l(r:p1ulv6416-udm11596) Units=km Length=0.0233481 bus1=udm11596.1.2 bus2=p1ulv6416.1.2 switch=n enabled=y phases=2 Linecode=1P_UG_AL_1/0_Brenau_0_416_0_2_2

New Line.l(r:udm11596-udm11598) Units=km Length=0.00809961 bus1=udm11598.1.2 bus2=udm11596.1.2 switch=n enabled=y phases=2 Linecode=1P_UG_AL_1/0_Brenau_0_416_0_2_2

New Line.l(r:udm11598-udm11599) Units=km Length=0.0093854 bus1=udm11599.1.2 bus2=udm11598.1.2 switch=n enabled=y phases=2 Linecode=1P_UG_AL_2/0_Converse_0_416_0_2_2

New Line.l(r:udm11599-udt2899lv) Units=km Length=0.009383650000000002 bus1=udt2899lv.1.2 bus2=udm11599.1.2 switch=n enabled=y phases=2 Linecode=1P_UG_AL_4/0_Sweetbriar_0_416_0_2_2

New Line.l(r:p1ulv6417-udm11601) Units=km Length=0.0162351 bus1=udm11601.1.2 bus2=p1ulv6417.1.2 switch=n enabled=y phases=2 Linecode=1P_UG_AL_1/0_Brenau_0_416_0_2_2

New Line.l(r:udm11601-udt2900lv) Units=km Length=0.0238484 bus1=udt2900lv.1.2 bus2=udm11601.1.2 switch=n enabled=y phases=2 Linecode=1P_UG_AL_1/0_Brenau_0_416_0_2_2

New Line.l(r:p1ulv22129-udm11603) Units=km Length=0.0156708 bus1=udm11603.1.2 bus2=p1ulv22129.1.2 switch=n enabled=y phases=2 Linecode=1P_UG_AL_1/0_Brenau_0_416_0_2_2

New Line.l(r:p1ulv6421-udm11602) Units=km Length=0.0130688 bus1=udm11602.1.2 bus2=p1ulv6421.1.2 switch=n enabled=y phases=2 Linecode=1P_UG_AL_2/0_Converse_0_416_0_2_2

New Line.l(r:udm11602-udm11603) Units=km Length=0.008393240000000001 bus1=udm11603.1.2 bus2=udm11602.1.2 switch=n enabled=y phases=2 Linecode=1P_UG_AL_2/0_Converse_0_416_0_2_2

New Line.l(r:udm11603-udt2900lv) Units=km Length=0.008393240000000001 bus1=udt2900lv.1.2 bus2=udm11603.1.2 switch=n enabled=y phases=2 Linecode=1P_UG_AL_4/0_Sweetbriar_0_416_0_2_2

New Line.l(r:p1ulv6418-udt2901lv) Units=km Length=0.0250977 bus1=udt2901lv.1.2 bus2=p1ulv6418.1.2 switch=n enabled=y phases=2 Linecode=1P_OH_AL_2/0_Rucina_0_416_0_2_2

New Line.l(r:p1ulv6419-udt2902lv) Units=km Length=0.0191748 bus1=udt2902lv.1.2 bus2=p1ulv6419.1.2 switch=n enabled=y phases=2 Linecode=1P_OH_AL_2/0_Rucina_0_416_0_2_2

New Line.l(r:p1ulv6420-udt2903lv) Units=km Length=0.028779200000000005 bus1=udt2903lv.1.2 bus2=p1ulv6420.1.2 switch=n enabled=y phases=2 Linecode=1P_OH_AL_4/0_Zuzara_0_416_0_2_2

New Line.l(r:p1ulv14804-udt2903lv) Units=km Length=0.0291818 bus1=udt2903lv.1.2 bus2=p1ulv14804.1.2 switch=n enabled=y phases=2 Linecode=1P_OH_AL_4/0_Zuzara_0_416_0_2_2

New Line.l(r:p1ulv15733-udm11608) Units=km Length=0.0664781 bus1=udm11608.1.2 bus2=p1ulv15733.1.2 switch=n enabled=y phases=2 Linecode=1P_OH_AL_4/0_Zuzara_0_416_0_2_2

New Line.l(r:udm11608-udt2903lv) Units=km Length=0.0196967 bus1=udt2903lv.1.2 bus2=udm11608.1.2 switch=n enabled=y phases=2 Linecode=1P_OH_AL_2/0_Rucina_0_416_0_2_2

New Line.l(r:p1ulv20404-udt2904lv) Units=km Length=0.0270407 bus1=udt2904lv.1.2 bus2=p1ulv20404.1.2 switch=n enabled=y phases=2 Linecode=1P_UG_AL_1/0_Brenau_0_416_0_2_2

New Line.l(r:p1ulv6422-udm11609) Units=km Length=0.0234555 bus1=udm11609.1.2 bus2=p1ulv6422.1.2 switch=n enabled=y phases=2 Linecode=1P_UG_AL_2/0_Converse_0_416_0_2_2

New Line.l(r:udm11609-udt2904lv) Units=km Length=0.028032 bus1=udt2904lv.1.2 bus2=udm11609.1.2 switch=n enabled=y phases=2 Linecode=1P_UG_AL_2/0_Converse_0_416_0_2_2

New Line.l(r:p1ulv7984-udm11610) Units=km Length=0.0370513 bus1=udm11610.1.2 bus2=p1ulv7984.1.2 switch=n enabled=y phases=2 Linecode=1P_UG_AL_1/0_Brenau_0_416_0_2_2

New Line.l(r:udm11610-udt2904lv) Units=km Length=0.0186964 bus1=udt2904lv.1.2 bus2=udm11610.1.2 switch=n enabled=y phases=2 Linecode=1P_UG_AL_1/0_Brenau_0_416_0_2_2

New Line.l(r:p1ulv17099-udt2905lv) Units=km Length=0.0593224 bus1=udt2905lv.1.2 bus2=p1ulv17099.1.2 switch=n enabled=y phases=2 Linecode=1P_OH_AL_4/0_Zuzara_0_416_0_2_2

New Line.l(r:p1ulv6423-udm11612) Units=km Length=0.0295039 bus1=udm11612.1.2 bus2=p1ulv6423.1.2 switch=n enabled=y phases=2 Linecode=1P_OH_AL_4/0_Zuzara_0_416_0_2_2

New Line.l(r:p1ulv16653-udm11612) Units=km Length=0.0614809 bus1=udm11612.1.2 bus2=p1ulv16653.1.2 switch=n enabled=y phases=2 Linecode=1P_OH_AL_4/0_Zuzara_0_416_0_2_2

New Line.l(r:udm11612-udt2905lv) Units=km Length=0.0187101 bus1=udt2905lv.1.2 bus2=udm11612.1.2 switch=n enabled=y phases=2 Linecode=1P_OH_AL_2/0_Rucina_0_416_0_2_2

New Line.l(r:p1ulv18618-udm11616) Units=km Length=0.0315187 bus1=udm11616.1.2 bus2=p1ulv18618.1.2 switch=n enabled=y phases=2 Linecode=1P_OH_AL_4/0_Zuzara_0_416_0_2_2

New Line.l(r:p1ulv6425-udm11613) Units=km Length=0.028284700000000003 bus1=udm11613.1.2 bus2=p1ulv6425.1.2 switch=n enabled=y phases=2 Linecode=1P_OH_AL_4/0_Zuzara_0_416_0_2_2

New Line.l(r:udm11613-udm11616) Units=km Length=0.0375301 bus1=udm11616.1.2 bus2=udm11613.1.2 switch=n enabled=y phases=2 Linecode=1P_OH_AL_4/0_Zuzara_0_416_0_2_2

New Line.l(r:udm11616-udt2905lv) Units=km Length=0.0187101 bus1=udt2905lv.1.2 bus2=udm11616.1.2 switch=n enabled=y phases=2 Linecode=1P_OH_AL_2/0_Rucina_0_416_0_2_2

New Line.l(r:p1ulv15041-udm11619) Units=km Length=0.0219989 bus1=udm11619.1.2 bus2=p1ulv15041.1.2 switch=n enabled=y phases=2 Linecode=1P_UG_AL_1/0_Brenau_0_416_0_2_2

New Line.l(r:p1ulv6424-udm11617) Units=km Length=0.019637800000000004 bus1=udm11617.1.2 bus2=p1ulv6424.1.2 switch=n enabled=y phases=2 Linecode=1P_UG_AL_1/0_Brenau_0_416_0_2_2

New Line.l(r:p1ulv13460-udm11617) Units=km Length=0.0240904 bus1=udm11617.1.2 bus2=p1ulv13460.1.2 switch=n enabled=y phases=2 Linecode=1P_UG_AL_1/0_Brenau_0_416_0_2_2

New Line.l(r:udm11617-udm11619) Units=km Length=0.00926409 bus1=udm11619.1.2 bus2=udm11617.1.2 switch=n enabled=y phases=2 Linecode=1P_UG_AL_4/0_Sweetbriar_0_416_0_2_2

New Line.l(r:udm11619-udt2906lv) Units=km Length=0.0190321 bus1=udt2906lv.1.2 bus2=udm11619.1.2 switch=n enabled=y phases=2 Linecode=1P_UG_AL_4/0_Sweetbriar_0_416_0_2_2

New Line.l(r:p1ulv21423-udm11620) Units=km Length=0.0249093 bus1=udm11620.1.2 bus2=p1ulv21423.1.2 switch=n enabled=y phases=2 Linecode=1P_UG_AL_1/0_Brenau_0_416_0_2_2

New Line.l(r:p1ulv34014-udm11621) Units=km Length=0.0212629 bus1=udm11621.1.2 bus2=p1ulv34014.1.2 switch=n enabled=y phases=2 Linecode=1P_UG_AL_1/0_Brenau_0_416_0_2_2

New Line.l(r:udm11620-udm11621) Units=km Length=0.0232347 bus1=udm11620.1.2 bus2=udm11621.1.2 switch=n enabled=y phases=2 Linecode=1P_UG_AL_1/0_Brenau_0_416_0_2_2

New Line.l(r:udm11620-udt2906lv) Units=km Length=0.0190321 bus1=udt2906lv.1.2 bus2=udm11620.1.2 switch=n enabled=y phases=2 Linecode=1P_UG_AL_4/0_Sweetbriar_0_416_0_2_2

New Line.l(r:p1ulv6426-udt2907lv) Units=km Length=0.010347 bus1=udt2907lv.1.2 bus2=p1ulv6426.1.2 switch=n enabled=y phases=2 Linecode=1P_UG_AL_1/0_Brenau_0_416_0_2_2

New Line.l(r:p1ulv15586-udm11623) Units=km Length=0.016467500000000003 bus1=udm11623.1.2 bus2=p1ulv15586.1.2 switch=n enabled=y phases=2 Linecode=1P_UG_AL_1/0_Brenau_0_416_0_2_2

New Line.l(r:udm11623-udt2907lv) Units=km Length=0.0708983 bus1=udt2907lv.1.2 bus2=udm11623.1.2 switch=n enabled=y phases=2 Linecode=1P_UG_AL_1/0_Brenau_0_416_0_2_2

New Line.l(r:p1ulv6427-udm11624) Units=km Length=0.025679900000000002 bus1=udm11624.1.2 bus2=p1ulv6427.1.2 switch=n enabled=y phases=2 Linecode=1P_OH_AL_2/0_Rucina_0_416_0_2_2

New Line.l(r:udm11624-udt2908lv) Units=km Length=0.0145878 bus1=udt2908lv.1.2 bus2=udm11624.1.2 switch=n enabled=y phases=2 Linecode=1P_OH_AL_2/0_Rucina_0_416_0_2_2

New Line.l(r:p1ulv34290-udm11625) Units=km Length=0.0365309 bus1=udm11625.1.2 bus2=p1ulv34290.1.2 switch=n enabled=y phases=2 Linecode=1P_OH_AL_4/0_Zuzara_0_416_0_2_2

New Line.l(r:udm11625-udt2908lv) Units=km Length=0.014576600000000002 bus1=udt2908lv.1.2 bus2=udm11625.1.2 switch=n enabled=y phases=2 Linecode=1P_OH_AL_2/0_Rucina_0_416_0_2_2

New Line.l(r:p1ulv6428-udt2909lv) Units=km Length=0.015252000000000002 bus1=udt2909lv.1.2 bus2=p1ulv6428.1.2 switch=n enabled=y phases=2 Linecode=1P_OH_AL_2/0_Rucina_0_416_0_2_2

New Line.l(r:p1ulv20194-udt2909lv) Units=km Length=0.0118662 bus1=udt2909lv.1.2 bus2=p1ulv20194.1.2 switch=n enabled=y phases=2 Linecode=1P_OH_AL_2/0_Rucina_0_416_0_2_2

New Line.l(r:p1ulv22136-udt2909lv) Units=km Length=0.0132266 bus1=udt2909lv.1.2 bus2=p1ulv22136.1.2 switch=n enabled=y phases=2 Linecode=1P_OH_AL_2/0_Rucina_0_416_0_2_2

New Line.l(r:p1ulv6429-udt2910lv) Units=km Length=0.019186900000000003 bus1=udt2910lv.1.2 bus2=p1ulv6429.1.2 switch=n enabled=y phases=2 Linecode=1P_OH_AL_2/0_Rucina_0_416_0_2_2

New Line.l(r:p1ulv30781-udt2910lv) Units=km Length=0.021942 bus1=udt2910lv.1.2 bus2=p1ulv30781.1.2 switch=n enabled=y phases=2 Linecode=1P_OH_AL_2/0_Rucina_0_416_0_2_2

New Line.l(r:p1ulv37387-udt2910lv) Units=km Length=0.0237406 bus1=udt2910lv.1.2 bus2=p1ulv37387.1.2 switch=n enabled=y phases=2 Linecode=1P_OH_AL_2/0_Rucina_0_416_0_2_2

New Line.l(r:p1ulv6440-udm11630) Units=km Length=0.0535472 bus1=udm11630.1.2 bus2=p1ulv6440.1.2 switch=n enabled=y phases=2 Linecode=1P_OH_AL_4/0_Zuzara_0_416_0_2_2

New Line.l(r:udm11630-udt2910lv) Units=km Length=0.0182988 bus1=udt2910lv.1.2 bus2=udm11630.1.2 switch=n enabled=y phases=2 Linecode=1P_OH_AL_2/0_Rucina_0_416_0_2_2

New Line.l(r:p1ulv6430-udm11633) Units=km Length=0.0158394 bus1=udm11633.1.2 bus2=p1ulv6430.1.2 switch=n enabled=y phases=2 Linecode=1P_OH_AL_2/0_Rucina_0_416_0_2_2

New Line.l(r:udm11633-udt2911lv) Units=km Length=0.0131785 bus1=udt2911lv.1.2 bus2=udm11633.1.2 switch=n enabled=y phases=2 Linecode=1P_OH_AL_2/0_Rucina_0_416_0_2_2

New Line.l(r:p1ulv15137-udm11634) Units=km Length=0.018602500000000004 bus1=udm11634.1.2 bus2=p1ulv15137.1.2 switch=n enabled=y phases=2 Linecode=1P_OH_AL_2/0_Rucina_0_416_0_2_2

New Line.l(r:udm11634-udt2911lv) Units=km Length=0.0176802 bus1=udt2911lv.1.2 bus2=udm11634.1.2 switch=n enabled=y phases=2 Linecode=1P_OH_AL_2/0_Rucina_0_416_0_2_2

New Line.l(r:p1ulv6431-udm11635) Units=km Length=0.0325105 bus1=udm11635.1.2 bus2=p1ulv6431.1.2 switch=n enabled=y phases=2 Linecode=1P_OH_AL_4/0_Zuzara_0_416_0_2_2

New Line.l(r:udm11635-udt2912lv) Units=km Length=0.0209395 bus1=udt2912lv.1.2 bus2=udm11635.1.2 switch=n enabled=y phases=2 Linecode=1P_OH_AL_2/0_Rucina_0_416_0_2_2

New Line.l(r:p1ulv30834-udm11636) Units=km Length=0.0286877 bus1=udm11636.1.2 bus2=p1ulv30834.1.2 switch=n enabled=y phases=2 Linecode=1P_UG_AL_1/0_Brenau_0_416_0_2_2

New Line.l(r:udm11636-udt2912lv) Units=km Length=0.00993173 bus1=udt2912lv.1.2 bus2=udm11636.1.2 switch=n enabled=y phases=2 Linecode=1P_UG_AL_1/0_Brenau_0_416_0_2_2

New Line.l(r:p1ulv6432-udm11637) Units=km Length=0.0211653 bus1=udm11637.1.2 bus2=p1ulv6432.1.2 switch=n enabled=y phases=2 Linecode=1P_UG_AL_1/0_Brenau_0_416_0_2_2

New Line.l(r:udm11637-udt2913lv) Units=km Length=0.00980087 bus1=udt2913lv.1.2 bus2=udm11637.1.2 switch=n enabled=y phases=2 Linecode=1P_UG_AL_1/0_Brenau_0_416_0_2_2

New Line.l(r:p1ulv13742-udm11638) Units=km Length=0.0389126 bus1=udm11638.1.2 bus2=p1ulv13742.1.2 switch=n enabled=y phases=2 Linecode=1P_UG_AL_1/0_Brenau_0_416_0_2_2

New Line.l(r:udm11638-udt2913lv) Units=km Length=0.0231657 bus1=udt2913lv.1.2 bus2=udm11638.1.2 switch=n enabled=y phases=2 Linecode=1P_UG_AL_1/0_Brenau_0_416_0_2_2

New Line.l(r:p1ulv6434-udm11640) Units=km Length=0.0282263 bus1=udm11640.1.2 bus2=p1ulv6434.1.2 switch=n enabled=y phases=2 Linecode=1P_UG_AL_1/0_Brenau_0_416_0_2_2

New Line.l(r:p1ulv32458-udm11640) Units=km Length=0.0561302 bus1=udm11640.1.2 bus2=p1ulv32458.1.2 switch=n enabled=y phases=2 Linecode=1P_UG_AL_1/0_Brenau_0_416_0_2_2

New Line.l(r:udm11640-udt2915lv) Units=km Length=0.0163683 bus1=udt2915lv.1.2 bus2=udm11640.1.2 switch=n enabled=y phases=2 Linecode=1P_UG_AL_1/0_Brenau_0_416_0_2_2

New Line.l(r:p1ulv7981-udm11642) Units=km Length=0.0259815 bus1=udm11642.1.2 bus2=p1ulv7981.1.2 switch=n enabled=y phases=2 Linecode=1P_UG_AL_1/0_Brenau_0_416_0_2_2

New Line.l(r:p1ulv7978-udm11641) Units=km Length=0.022108000000000003 bus1=udm11641.1.2 bus2=p1ulv7978.1.2 switch=n enabled=y phases=2 Linecode=1P_UG_AL_2/0_Converse_0_416_0_2_2

New Line.l(r:udm11641-udm11642) Units=km Length=0.008180810000000002 bus1=udm11642.1.2 bus2=udm11641.1.2 switch=n enabled=y phases=2 Linecode=1P_UG_AL_2/0_Converse_0_416_0_2_2

New Line.l(r:udm11642-udt2915lv) Units=km Length=0.00818747 bus1=udt2915lv.1.2 bus2=udm11642.1.2 switch=n enabled=y phases=2 Linecode=1P_UG_AL_4/0_Sweetbriar_0_416_0_2_2

New Line.l(r:p1ulv6435-udt2916lv) Units=km Length=0.0222185 bus1=udt2916lv.1.2 bus2=p1ulv6435.1.2 switch=n enabled=y phases=2 Linecode=1P_OH_AL_2/0_Rucina_0_416_0_2_2

New Line.l(r:p1ulv25442-udt2916lv) Units=km Length=0.055038800000000006 bus1=udt2916lv.1.2 bus2=p1ulv25442.1.2 switch=n enabled=y phases=2 Linecode=1P_OH_AL_4/0_Zuzara_0_416_0_2_2

New Line.l(r:p1ulv14943-udm11645) Units=km Length=0.0280055 bus1=udm11645.1.2 bus2=p1ulv14943.1.2 switch=n enabled=y phases=2 Linecode=1P_OH_AL_4/0_Zuzara_0_416_0_2_2

New Line.l(r:udm11645-udt2916lv) Units=km Length=0.0366002 bus1=udt2916lv.1.2 bus2=udm11645.1.2 switch=n enabled=y phases=2 Linecode=1P_OH_AL_4/0_Zuzara_0_416_0_2_2

New Line.l(r:p1ulv20597-udm11646) Units=km Length=0.0247306 bus1=udm11646.1.2 bus2=p1ulv20597.1.2 switch=n enabled=y phases=2 Linecode=1P_OH_AL_2/0_Rucina_0_416_0_2_2

New Line.l(r:udm11646-udt2916lv) Units=km Length=0.0183048 bus1=udt2916lv.1.2 bus2=udm11646.1.2 switch=n enabled=y phases=2 Linecode=1P_OH_AL_2/0_Rucina_0_416_0_2_2

New Line.l(r:p1ulv6438-udt2917lv) Units=km Length=0.0224125 bus1=udt2917lv.1.2 bus2=p1ulv6438.1.2 switch=n enabled=y phases=2 Linecode=1P_OH_AL_2/0_Rucina_0_416_0_2_2

New Line.l(r:p1ulv6436-udm11648) Units=km Length=0.0202168 bus1=udm11648.1.2 bus2=p1ulv6436.1.2 switch=n enabled=y phases=2 Linecode=1P_OH_AL_2/0_Rucina_0_416_0_2_2

New Line.l(r:p1ulv25843-udm11648) Units=km Length=0.0357229 bus1=udm11648.1.2 bus2=p1ulv25843.1.2 switch=n enabled=y phases=2 Linecode=1P_OH_AL_4/0_Zuzara_0_416_0_2_2

New Line.l(r:udm11648-udt2917lv) Units=km Length=0.0168573 bus1=udt2917lv.1.2 bus2=udm11648.1.2 switch=n enabled=y phases=2 Linecode=1P_OH_AL_2/0_Rucina_0_416_0_2_2

New Line.l(r:p1ulv18571-udm11650) Units=km Length=0.0222418 bus1=udm11650.1.2 bus2=p1ulv18571.1.2 switch=n enabled=y phases=2 Linecode=1P_OH_AL_2/0_Rucina_0_416_0_2_2

New Line.l(r:udm11650-udt2917lv) Units=km Length=0.0357502 bus1=udt2917lv.1.2 bus2=udm11650.1.2 switch=n enabled=y phases=2 Linecode=1P_OH_AL_4/0_Zuzara_0_416_0_2_2

New Line.l(r:p1ulv22008-udt2918lv) Units=km Length=0.0254578 bus1=udt2918lv.1.2 bus2=p1ulv22008.1.2 switch=n enabled=y phases=2 Linecode=1P_UG_AL_1/0_Brenau_0_416_0_2_2

New Line.l(r:p1ulv6437-udm11652) Units=km Length=0.022916900000000004 bus1=udm11652.1.2 bus2=p1ulv6437.1.2 switch=n enabled=y phases=2 Linecode=1P_UG_AL_1/0_Brenau_0_416_0_2_2

New Line.l(r:udm11652-udt2918lv) Units=km Length=0.04580360000000001 bus1=udt2918lv.1.2 bus2=udm11652.1.2 switch=n enabled=y phases=2 Linecode=1P_UG_AL_1/0_Brenau_0_416_0_2_2

New Line.l(r:p1ulv19895-udm11654) Units=km Length=0.0420463 bus1=udm11654.1.2 bus2=p1ulv19895.1.2 switch=n enabled=y phases=2 Linecode=1P_UG_AL_1/0_Brenau_0_416_0_2_2

New Line.l(r:p1ulv7987-udm11653) Units=km Length=0.0262495 bus1=udm11653.1.2 bus2=p1ulv7987.1.2 switch=n enabled=y phases=2 Linecode=1P_UG_AL_1/0_Brenau_0_416_0_2_2

New Line.l(r:udm11653-udm11654) Units=km Length=0.018333500000000003 bus1=udm11654.1.2 bus2=udm11653.1.2 switch=n enabled=y phases=2 Linecode=1P_UG_AL_1/0_Brenau_0_416_0_2_2

New Line.l(r:udm11654-udt2918lv) Units=km Length=0.009166750000000001 bus1=udt2918lv.1.2 bus2=udm11654.1.2 switch=n enabled=y phases=2 Linecode=1P_UG_AL_1/0_Brenau_0_416_0_2_2

New Line.l(r:p1ulv6439-udt2919lv) Units=km Length=0.020121 bus1=udt2919lv.1.2 bus2=p1ulv6439.1.2 switch=n enabled=y phases=2 Linecode=1P_UG_AL_2/0_Converse_0_416_0_2_2

New Line.l(r:p1ulv6446-udt2923lv) Units=km Length=0.011181 bus1=udt2923lv.1.2 bus2=p1ulv6446.1.2 switch=n enabled=y phases=2 Linecode=1P_OH_AL_2/0_Rucina_0_416_0_2_2

New Line.l(r:p1ulv6447-udm11666) Units=km Length=0.0184053 bus1=udm11666.1.2 bus2=p1ulv6447.1.2 switch=n enabled=y phases=2 Linecode=1P_OH_AL_2/0_Rucina_0_416_0_2_2

New Line.l(r:udm11666-udt2924lv) Units=km Length=0.0111419 bus1=udt2924lv.1.2 bus2=udm11666.1.2 switch=n enabled=y phases=2 Linecode=1P_OH_AL_2/0_Rucina_0_416_0_2_2

New Line.l(r:p1ulv24701-udm11667) Units=km Length=0.0197957 bus1=udm11667.1.2 bus2=p1ulv24701.1.2 switch=n enabled=y phases=2 Linecode=1P_OH_AL_2/0_Rucina_0_416_0_2_2

New Line.l(r:udm11667-udt2924lv) Units=km Length=0.0242007 bus1=udt2924lv.1.2 bus2=udm11667.1.2 switch=n enabled=y phases=2 Linecode=1P_OH_AL_2/0_Rucina_0_416_0_2_2

New Line.l(r:p1ulv6456-udt2930lv) Units=km Length=0.0318064 bus1=udt2930lv.1.2 bus2=p1ulv6456.1.2 switch=n enabled=y phases=2 Linecode=1P_OH_AL_4/0_Zuzara_0_416_0_2_2

New Line.l(r:p1ulv37439-udt2930lv) Units=km Length=0.0136349 bus1=udt2930lv.1.2 bus2=p1ulv37439.1.2 switch=n enabled=y phases=2 Linecode=1P_OH_AL_2/0_Rucina_0_416_0_2_2

New Line.l(r:p1ulv7333-udt3300lv) Units=km Length=0.0210647 bus1=udt3300lv.1.2 bus2=p1ulv7333.1.2 switch=n enabled=y phases=2 Linecode=1P_OH_AL_2/0_Rucina_0_416_0_2_2

New Line.l(r:p1ulv21629-udt3300lv) Units=km Length=0.015124600000000002 bus1=udt3300lv.1.2 bus2=p1ulv21629.1.2 switch=n enabled=y phases=2 Linecode=1P_OH_AL_2/0_Rucina_0_416_0_2_2

New Line.l(r:p1ulv7334-udm12984) Units=km Length=0.0193161 bus1=udm12984.1.2 bus2=p1ulv7334.1.2 switch=n enabled=y phases=2 Linecode=1P_OH_AL_2/0_Rucina_0_416_0_2_2

New Line.l(r:p1ulv7358-udm12984) Units=km Length=0.0147182 bus1=udm12984.1.2 bus2=p1ulv7358.1.2 switch=n enabled=y phases=2 Linecode=1P_OH_AL_2/0_Rucina_0_416_0_2_2

New Line.l(r:p1ulv24893-udm12991) Units=km Length=0.0147349 bus1=udm12991.1.2 bus2=p1ulv24893.1.2 switch=n enabled=y phases=2 Linecode=1P_OH_AL_2/0_Rucina_0_416_0_2_2

New Line.l(r:udm12984-udm12991) Units=km Length=0.0189603 bus1=udm12984.1.2 bus2=udm12991.1.2 switch=n enabled=y phases=2 Linecode=1P_OH_AL_2/0_Rucina_0_416_0_2_2

New Line.l(r:udm12984-udt3300lv) Units=km Length=0.0189603 bus1=udt3300lv.1.2 bus2=udm12984.1.2 switch=n enabled=y phases=2 Linecode=1P_OH_AL_2/0_Rucina_0_416_0_2_2

New Line.l(r:p1ulv16702-udm12987) Units=km Length=0.017047 bus1=udm12987.1.2 bus2=p1ulv16702.1.2 switch=n enabled=y phases=2 Linecode=1P_OH_AL_2/0_Rucina_0_416_0_2_2

New Line.l(r:p1ulv24031-udm12987) Units=km Length=0.0236963 bus1=udm12987.1.2 bus2=p1ulv24031.1.2 switch=n enabled=y phases=2 Linecode=1P_OH_AL_2/0_Rucina_0_416_0_2_2

New Line.l(r:p1ulv15124-udm12986) Units=km Length=0.0167139 bus1=udm12986.1.2 bus2=p1ulv15124.1.2 switch=n enabled=y phases=2 Linecode=1P_OH_AL_2/0_Rucina_0_416_0_2_2

New Line.l(r:p1ulv21805-udm12989) Units=km Length=0.022931100000000003 bus1=udm12989.1.2 bus2=p1ulv21805.1.2 switch=n enabled=y phases=2 Linecode=1P_OH_AL_2/0_Rucina_0_416_0_2_2

New Line.l(r:udm12986-udm12989) Units=km Length=0.0189603 bus1=udm12986.1.2 bus2=udm12989.1.2 switch=n enabled=y phases=2 Linecode=1P_OH_AL_2/0_Rucina_0_416_0_2_2

New Line.l(r:udm12986-udm12987) Units=km Length=0.0189503 bus1=udm12987.1.2 bus2=udm12986.1.2 switch=n enabled=y phases=2 Linecode=1P_OH_AL_2/0_Rucina_0_416_0_2_2

New Line.l(r:udm12987-udt3300lv) Units=km Length=0.0189603 bus1=udt3300lv.1.2 bus2=udm12987.1.2 switch=n enabled=y phases=2 Linecode=1P_OH_AL_2/0_Rucina_0_416_0_2_2

New Line.l(r:p1ulv7335-udt3301lv) Units=km Length=0.0190023 bus1=udt3301lv.1.2 bus2=p1ulv7335.1.2 switch=n enabled=y phases=2 Linecode=1P_UG_AL_1/0_Brenau_0_416_0_2_2

New Line.l(r:p1ulv30904-udt3301lv) Units=km Length=0.015450000000000002 bus1=udt3301lv.1.2 bus2=p1ulv30904.1.2 switch=n enabled=y phases=2 Linecode=1P_UG_AL_1/0_Brenau_0_416_0_2_2

New Line.l(r:p1ulv18698-udt3302lv) Units=km Length=0.0265628 bus1=udt3302lv.1.2 bus2=p1ulv18698.1.2 switch=n enabled=y phases=2 Linecode=1P_OH_AL_2/0_Rucina_0_416_0_2_2

New Line.l(r:p1ulv7336-udm12994) Units=km Length=0.0267272 bus1=udm12994.1.2 bus2=p1ulv7336.1.2 switch=n enabled=y phases=2 Linecode=1P_OH_AL_2/0_Rucina_0_416_0_2_2

New Line.l(r:udm12994-udt3302lv) Units=km Length=0.0193408 bus1=udt3302lv.1.2 bus2=udm12994.1.2 switch=n enabled=y phases=2 Linecode=1P_OH_AL_2/0_Rucina_0_416_0_2_2

New Line.l(r:p1ulv20184-udm12996) Units=km Length=0.0263368 bus1=udm12996.1.2 bus2=p1ulv20184.1.2 switch=n enabled=y phases=2 Linecode=1P_OH_AL_2/0_Rucina_0_416_0_2_2

New Line.l(r:udm12996-udt3302lv) Units=km Length=0.0193508 bus1=udt3302lv.1.2 bus2=udm12996.1.2 switch=n enabled=y phases=2 Linecode=1P_OH_AL_2/0_Rucina_0_416_0_2_2

New Line.l(r:p1ulv25432-udt3303lv) Units=km Length=0.0102364 bus1=udt3303lv.1.2 bus2=p1ulv25432.1.2 switch=n enabled=y phases=2 Linecode=1P_OH_AL_2/0_Rucina_0_416_0_2_2

New Line.l(r:p1ulv7337-udm12997) Units=km Length=0.0302963 bus1=udm12997.1.2 bus2=p1ulv7337.1.2 switch=n enabled=y phases=2 Linecode=1P_OH_AL_4/0_Zuzara_0_416_0_2_2

New Line.l(r:udm12997-udt3303lv) Units=km Length=0.100733 bus1=udt3303lv.1.2 bus2=udm12997.1.2 switch=n enabled=y phases=2 Linecode=1P_OH_AL_4/0_Zuzara_0_416_0_2_2

New Line.l(r:p1ulv15277-udt3304lv) Units=km Length=0.025776 bus1=udt3304lv.1.2 bus2=p1ulv15277.1.2 switch=n enabled=y phases=2 Linecode=1P_OH_AL_2/0_Rucina_0_416_0_2_2

New Line.l(r:p1ulv7338-udm12999) Units=km Length=0.0262413 bus1=udm12999.1.2 bus2=p1ulv7338.1.2 switch=n enabled=y phases=2 Linecode=1P_OH_AL_2/0_Rucina_0_416_0_2_2

New Line.l(r:udm12999-udt3304lv) Units=km Length=0.0193508 bus1=udt3304lv.1.2 bus2=udm12999.1.2 switch=n enabled=y phases=2 Linecode=1P_OH_AL_2/0_Rucina_0_416_0_2_2

New Line.l(r:p1ulv25574-udm13001) Units=km Length=0.030786200000000003 bus1=udm13001.1.2 bus2=p1ulv25574.1.2 switch=n enabled=y phases=2 Linecode=1P_OH_AL_4/0_Zuzara_0_416_0_2_2

New Line.l(r:udm13001-udt3304lv) Units=km Length=0.0386917 bus1=udt3304lv.1.2 bus2=udm13001.1.2 switch=n enabled=y phases=2 Linecode=1P_OH_AL_4/0_Zuzara_0_416_0_2_2

New Line.l(r:p1ulv7339-udm13002) Units=km Length=0.016542300000000003 bus1=udm13002.1.2 bus2=p1ulv7339.1.2 switch=n enabled=y phases=2 Linecode=1P_UG_AL_1/0_Brenau_0_416_0_2_2

New Line.l(r:p1ulv16645-udm13002) Units=km Length=0.0126843 bus1=udm13002.1.2 bus2=p1ulv16645.1.2 switch=n enabled=y phases=2 Linecode=1P_UG_AL_1/0_Brenau_0_416_0_2_2

New Line.l(r:p1ulv15809-udm13003) Units=km Length=0.016946800000000005 bus1=udm13003.1.2 bus2=p1ulv15809.1.2 switch=n enabled=y phases=2 Linecode=1P_UG_AL_1/0_Brenau_0_416_0_2_2

New Line.l(r:udm13002-udm13003) Units=km Length=0.0195841 bus1=udm13002.1.2 bus2=udm13003.1.2 switch=n enabled=y phases=2 Linecode=1P_UG_AL_1/0_Brenau_0_416_0_2_2

New Line.l(r:udm13002-udt3305lv) Units=km Length=0.0455366 bus1=udt3305lv.1.2 bus2=udm13002.1.2 switch=n enabled=y phases=2 Linecode=1P_OH_AL_4/0_Zuzara_0_416_0_2_2

New Line.l(r:p1ulv22074-udm13006) Units=km Length=0.0289009 bus1=udm13006.1.2 bus2=p1ulv22074.1.2 switch=n enabled=y phases=2 Linecode=1P_OH_AL_4/0_Zuzara_0_416_0_2_2

New Line.l(r:p1ulv18156-udm13005) Units=km Length=0.0235396 bus1=udm13005.1.2 bus2=p1ulv18156.1.2 switch=n enabled=y phases=2 Linecode=1P_OH_AL_2/0_Rucina_0_416_0_2_2

New Line.l(r:udm13005-udm13006) Units=km Length=0.0323604 bus1=udm13006.1.2 bus2=udm13005.1.2 switch=n enabled=y phases=2 Linecode=1P_OH_AL_4/0_Zuzara_0_416_0_2_2

New Line.l(r:udm13006-udt3305lv) Units=km Length=0.0161803 bus1=udt3305lv.1.2 bus2=udm13006.1.2 switch=n enabled=y phases=2 Linecode=1P_OH_AL_2/0_Rucina_0_416_0_2_2

New Line.l(r:p1ulv7340-udt3306lv) Units=km Length=0.0332596 bus1=udt3306lv.1.2 bus2=p1ulv7340.1.2 switch=n enabled=y phases=2 Linecode=1P_OH_AL_4/0_Zuzara_0_416_0_2_2

New Line.l(r:p1ulv16794-udt3306lv) Units=km Length=0.0171281 bus1=udt3306lv.1.2 bus2=p1ulv16794.1.2 switch=n enabled=y phases=2 Linecode=1P_OH_AL_2/0_Rucina_0_416_0_2_2

New Line.l(r:p1ulv15212-udm13008) Units=km Length=0.0174021 bus1=udm13008.1.2 bus2=p1ulv15212.1.2 switch=n enabled=y phases=2 Linecode=1P_OH_AL_2/0_Rucina_0_416_0_2_2

New Line.l(r:udm13008-udt3306lv) Units=km Length=0.0196841 bus1=udt3306lv.1.2 bus2=udm13008.1.2 switch=n enabled=y phases=2 Linecode=1P_OH_AL_2/0_Rucina_0_416_0_2_2

New Line.l(r:p1ulv21716-udm13010) Units=km Length=0.0168309 bus1=udm13010.1.2 bus2=p1ulv21716.1.2 switch=n enabled=y phases=2 Linecode=1P_OH_AL_2/0_Rucina_0_416_0_2_2

New Line.l(r:udm13010-udt3306lv) Units=km Length=0.0196941 bus1=udt3306lv.1.2 bus2=udm13010.1.2 switch=n enabled=y phases=2 Linecode=1P_OH_AL_2/0_Rucina_0_416_0_2_2

New Line.l(r:p1ulv14933-udt3307lv) Units=km Length=0.0160396 bus1=udt3307lv.1.2 bus2=p1ulv14933.1.2 switch=n enabled=y phases=2 Linecode=1P_OH_AL_2/0_Rucina_0_416_0_2_2

New Line.l(r:p1ulv21949-udt3307lv) Units=km Length=0.031259 bus1=udt3307lv.1.2 bus2=p1ulv21949.1.2 switch=n enabled=y phases=2 Linecode=1P_OH_AL_4/0_Zuzara_0_416_0_2_2
