New Load.load_p1ulv1289 conn=wye bus1=p1ulv1289.1.2 kV=0.2080002494301389 Vminpu=0.8 Vmaxpu=1.2 model=1 kW=17.67 kvar=0.5393722093713369 Phases=2

New Load.load_p1ulv1290 conn=wye bus1=p1ulv1289.1.2 kV=0.2080002494301389 Vminpu=0.8 Vmaxpu=1.2 model=1 kW=17.79 kvar=0.569452865461029 Phases=2

New Load.load_p1ulv1291 conn=wye bus1=p1ulv1291.1.2 kV=0.2080002494301389 Vminpu=0.8 Vmaxpu=1.2 model=1 kW=17.78 kvar=0.5601303263507202 Phases=2

New Load.load_p1ulv1292 conn=wye bus1=p1ulv1291.1.2 kV=0.2080002494301389 Vminpu=0.8 Vmaxpu=1.2 model=1 kW=17.75 kvar=0.5598547025122315 Phases=2

New Load.load_p1ulv1293 conn=wye bus1=p1ulv1293.1.2 kV=0.2080002494301389 Vminpu=0.8 Vmaxpu=1.2 model=1 kW=10.38 kvar=0.5893205887930111 Phases=2

New Load.load_p1ulv1294 conn=wye bus1=p1ulv1294.1.2 kV=0.2080002494301389 Vminpu=0.8 Vmaxpu=1.2 model=1 kW=17.82 kvar=0.5696736784206362 Phases=2

New Load.load_p1ulv1295 conn=wye bus1=p1ulv1295.1.2 kV=0.2080002494301389 Vminpu=0.8 Vmaxpu=1.2 model=1 kW=10.28 kvar=0.5601303263507202 Phases=2

New Load.load_p1ulv1296 conn=wye bus1=p1ulv1295.1.2 kV=0.2080002494301389 Vminpu=0.8 Vmaxpu=1.2 model=1 kW=10.33 kvar=0.5702045040817287 Phases=2

New Load.load_p1ulv1297 conn=wye bus1=p1ulv1297.1.2 kV=0.2080002494301389 Vminpu=0.8 Vmaxpu=1.2 model=1 kW=10.26 kvar=0.5604479951096709 Phases=2

New Load.load_p1ulv1394 conn=wye bus1=p1ulv1394.1.2 kV=0.2080002494301389 Vminpu=0.8 Vmaxpu=1.2 model=1 kW=7.00007 kvar=1.4214248385442743 Phases=2

New Load.load_p1ulv1395 conn=wye bus1=p1ulv1395.1.2.3 kV=0.48 Vminpu=0.8 Vmaxpu=1.2 model=1 kW=32.0003 kvar=6.497938057886329 Phases=3

New Load.load_p1ulv4347 conn=wye bus1=p1ulv4347.1.2.3 kV=0.48 Vminpu=0.8 Vmaxpu=1.2 model=1 kW=31.660299999999996 kvar=6.428898113270765 Phases=3

New Load.load_p1ulv4348 conn=wye bus1=p1ulv4348.1.2.3 kV=0.48 Vminpu=0.8 Vmaxpu=1.2 model=1 kW=33.5403 kvar=6.810648395262694 Phases=3

New Load.load_p1ulv4349 conn=wye bus1=p1ulv4349.1.2 kV=0.2080002494301389 Vminpu=0.8 Vmaxpu=1.2 model=1 kW=3.40003 kvar=0.6904055379154336 Phases=2

New Load.load_p1ulv4350 conn=wye bus1=p1ulv4350.1.2.3 kV=0.48 Vminpu=0.8 Vmaxpu=1.2 model=1 kW=42.0304 kvar=8.534636729911455 Phases=3

New Load.load_p1ulv4352 conn=wye bus1=p1ulv4352.1.2 kV=0.2080002494301389 Vminpu=0.8 Vmaxpu=1.2 model=1 kW=3.95004 kvar=0.8000206635310265 Phases=2

New Load.load_p1ulv4353 conn=wye bus1=p1ulv4353.1.2 kV=0.2080002494301389 Vminpu=0.8 Vmaxpu=1.2 model=1 kW=2.92003 kvar=0.5898746577868357 Phases=2

New Load.load_p1ulv4354 conn=wye bus1=p1ulv4354.1.2 kV=0.2080002494301389 Vminpu=0.8 Vmaxpu=1.2 model=1 kW=12.35 kvar=0.9797575997503596 Phases=2

New Load.load_p1ulv4356 conn=wye bus1=p1ulv4356.1.2 kV=0.2080002494301389 Vminpu=0.8 Vmaxpu=1.2 model=1 kW=11.48 kvar=0.8102617463034154 Phases=2

New Load.load_p1ulv4783 conn=wye bus1=p1ulv4783.1.2 kV=0.2080002494301389 Vminpu=0.8 Vmaxpu=1.2 model=1 kW=11.5401 kvar=2.337272143880669 Phases=2

New Load.load_p1ulv4790 conn=wye bus1=p1ulv4790.1.2.3 kV=0.48 Vminpu=0.8 Vmaxpu=1.2 model=1 kW=32.1303 kvar=6.524335683768746 Phases=3

New Load.load_p1ulv4796 conn=wye bus1=p1ulv4796.1.2 kV=0.2080002494301389 Vminpu=0.8 Vmaxpu=1.2 model=1 kW=4.93005 kvar=1.0010893498586726 Phases=2

New Load.load_p1ulv4797 conn=wye bus1=p1ulv4797.1.2 kV=0.2080002494301389 Vminpu=0.8 Vmaxpu=1.2 model=1 kW=9.42 kvar=0.38987668959050087 Phases=2

New Load.load_p1ulv4802 conn=wye bus1=p1ulv4802.1.2 kV=0.2080002494301389 Vminpu=0.8 Vmaxpu=1.2 model=1 kW=11.2 kvar=0.7493869570665965 Phases=2

New Load.load_p1ulv4809 conn=wye bus1=p1ulv4809.1.2.3 kV=0.48 Vminpu=0.8 Vmaxpu=1.2 model=1 kW=58.910599999999995 kvar=11.962307533145573 Phases=3

New Load.load_p1ulv4854 conn=wye bus1=p1ulv4854.1.2 kV=0.2080002494301389 Vminpu=0.8 Vmaxpu=1.2 model=1 kW=6.21006 kvar=1.2610064660568046 Phases=2

New Load.load_p1ulv4855 conn=wye bus1=p1ulv4855.1.2.3 kV=0.48 Vminpu=0.8 Vmaxpu=1.2 model=1 kW=39.3904 kvar=7.998561865837683 Phases=3

New Load.load_p1ulv9118 conn=wye bus1=p1ulv9118.1.2.3 kV=0.48 Vminpu=0.8 Vmaxpu=1.2 model=1 kW=50.380499999999984 kvar=10.230196852071451 Phases=3

New Load.load_p1ulv9120 conn=wye bus1=p1ulv9118.1.2.3 kV=0.48 Vminpu=0.8 Vmaxpu=1.2 model=1 kW=39.6104 kvar=8.043234771177163 Phases=3

New Load.load_p1ulv9151 conn=wye bus1=p1ulv9151.1.2.3 kV=0.48 Vminpu=0.8 Vmaxpu=1.2 model=1 kW=20.2902 kvar=4.120100835996073 Phases=3

New Load.load_p1ulv9152 conn=wye bus1=p1ulv9152.1.2.3 kV=0.48 Vminpu=0.8 Vmaxpu=1.2 model=1 kW=34.9703 kvar=7.10102227996932 Phases=3

New Load.load_p1ulv9153 conn=wye bus1=p1ulv9153.1.2.3 kV=0.48 Vminpu=0.8 Vmaxpu=1.2 model=1 kW=46.6405 kvar=9.470757461300279 Phases=3

New Load.load_p1ulv9154 conn=wye bus1=p1ulv9154.1.2 kV=0.2080002494301389 Vminpu=0.8 Vmaxpu=1.2 model=1 kW=4.77005 kvar=0.9710930148829175 Phases=2

New Load.load_p1ulv9155 conn=wye bus1=p1ulv9155.1.2 kV=0.2080002494301389 Vminpu=0.8 Vmaxpu=1.2 model=1 kW=1.38001 kvar=0.28022298226153225 Phases=2

New Load.load_p1ulv9157 conn=wye bus1=p1ulv9157.1.2.3 kV=0.48 Vminpu=0.8 Vmaxpu=1.2 model=1 kW=22.7702 kvar=4.623686314368404 Phases=3

New Load.load_p1ulv9158 conn=wye bus1=p1ulv9158.1.2 kV=0.2080002494301389 Vminpu=0.8 Vmaxpu=1.2 model=1 kW=4.85005 kvar=1.5906895836778168 Phases=2

New Load.load_p1ulv9159 conn=wye bus1=p1ulv9159.1.2.3 kV=0.48 Vminpu=0.8 Vmaxpu=1.2 model=1 kW=35.8704 kvar=11.790030326407893 Phases=3

New Load.load_p1ulv9160 conn=wye bus1=p1ulv9159.1.2.3 kV=0.48 Vminpu=0.8 Vmaxpu=1.2 model=1 kW=93.5309 kvar=18.99225928189299 Phases=3

New Load.load_p1ulv10837 conn=wye bus1=p1ulv10837.1.2.3 kV=0.48 Vminpu=0.8 Vmaxpu=1.2 model=1 kW=46.1405 kvar=9.369228130983275 Phases=3

New Load.load_p1ulv10838 conn=wye bus1=p1ulv10838.1.2.3 kV=0.48 Vminpu=0.8 Vmaxpu=1.2 model=1 kW=39.2904 kvar=7.978255999774281 Phases=3

New Load.load_p1ulv10839 conn=wye bus1=p1ulv10839.1.2.3 kV=0.48 Vminpu=0.8 Vmaxpu=1.2 model=1 kW=71.96070000000002 kvar=14.612243360285392 Phases=3

New Load.load_p1ulv10840 conn=wye bus1=p1ulv10840.1.2.3 kV=0.48 Vminpu=0.8 Vmaxpu=1.2 model=1 kW=31.8503 kvar=6.4674792587912275 Phases=3

New Load.load_p1ulv10841 conn=wye bus1=p1ulv10840.1.2.3 kV=0.48 Vminpu=0.8 Vmaxpu=1.2 model=1 kW=21.5702 kvar=4.3800159216076 Phases=3

New Load.load_p1ulv10842 conn=wye bus1=p1ulv10842.1.2.3 kV=0.48 Vminpu=0.8 Vmaxpu=1.2 model=1 kW=24.770200000000003 kvar=5.029803635636414 Phases=3

New Load.load_p1ulv10843 conn=wye bus1=p1ulv10843.1.2.3 kV=0.48 Vminpu=0.8 Vmaxpu=1.2 model=1 kW=58.22059999999999 kvar=11.82219705730811 Phases=3

New Load.load_p1ulv10844 conn=wye bus1=p1ulv10844.1.2 kV=0.2080002494301389 Vminpu=0.8 Vmaxpu=1.2 model=1 kW=8.36008 kvar=1.7019560155265416 Phases=2

New Load.load_p1ulv10845 conn=wye bus1=p1ulv10845.1.2 kV=0.2080002494301389 Vminpu=0.8 Vmaxpu=1.2 model=1 kW=7.54008 kvar=1.531078545873243 Phases=2

New Load.load_p1ulv10846 conn=wye bus1=p1ulv10846.1.2 kV=0.2080002494301389 Vminpu=0.8 Vmaxpu=1.2 model=1 kW=6.700070000000001 kvar=1.3605072403540732 Phases=2

New Load.load_p1ulv10847 conn=wye bus1=p1ulv10847.1.2 kV=0.2080002494301389 Vminpu=0.8 Vmaxpu=1.2 model=1 kW=6.76007 kvar=1.3691496002359942 Phases=2

New Load.load_p1ulv10848 conn=wye bus1=p1ulv10848.1.2 kV=0.2080002494301389 Vminpu=0.8 Vmaxpu=1.2 model=1 kW=17.7602 kvar=3.606362424592043 Phases=2

New Load.load_p1ulv10849 conn=wye bus1=p1ulv10849.1.2 kV=0.2080002494301389 Vminpu=0.8 Vmaxpu=1.2 model=1 kW=18.4902 kvar=3.7545952468548665 Phases=2

New Load.load_p1ulv10850 conn=wye bus1=p1ulv10850.1.2 kV=0.2080002494301389 Vminpu=0.8 Vmaxpu=1.2 model=1 kW=18.5002 kvar=3.7566258334612064 Phases=2

New Load.load_p1ulv10851 conn=wye bus1=p1ulv10851.1.2 kV=0.2080002494301389 Vminpu=0.8 Vmaxpu=1.2 model=1 kW=7.44007 kvar=1.5107706492232365 Phases=2

New Load.load_p1ulv10852 conn=wye bus1=p1ulv10852.1.2.3 kV=0.48 Vminpu=0.8 Vmaxpu=1.2 model=1 kW=20.9002 kvar=4.2439666189828165 Phases=3

New Load.load_p1ulv10853 conn=wye bus1=p1ulv10852.1.2.3 kV=0.48 Vminpu=0.8 Vmaxpu=1.2 model=1 kW=55.07059999999999 kvar=11.182562276310994 Phases=3

New Load.load_p1ulv10854 conn=wye bus1=p1ulv10854.1.2.3 kV=0.48 Vminpu=0.8 Vmaxpu=1.2 model=1 kW=169.752 kvar=34.4696137599435 Phases=3

New Load.load_p1ulv10855 conn=wye bus1=p1ulv10855.1.2 kV=0.2080002494301389 Vminpu=0.8 Vmaxpu=1.2 model=1 kW=16.7302 kvar=3.397212004139019 Phases=2

New Load.load_p1ulv10856 conn=wye bus1=p1ulv10856.1.2 kV=0.2080002494301389 Vminpu=0.8 Vmaxpu=1.2 model=1 kW=7.74008 kvar=1.5716902780000437 Phases=2

New Load.load_p1ulv10857 conn=wye bus1=p1ulv10857.1.2 kV=0.2080002494301389 Vminpu=0.8 Vmaxpu=1.2 model=1 kW=5.58006 kvar=1.1301564803756265 Phases=2

New Load.load_p1ulv10858 conn=wye bus1=p1ulv10858.1.2 kV=0.2080002494301389 Vminpu=0.8 Vmaxpu=1.2 model=1 kW=7.98008 kvar=1.6204243565522047 Phases=2

New Load.load_p1ulv10859 conn=wye bus1=p1ulv10859.1.2 kV=0.2080002494301389 Vminpu=0.8 Vmaxpu=1.2 model=1 kW=5.24005 kvar=1.0612926142357433 Phases=2

New Load.load_p1ulv10860 conn=wye bus1=p1ulv10860.1.2 kV=0.2080002494301389 Vminpu=0.8 Vmaxpu=1.2 model=1 kW=4.31004 kvar=0.8706702910749454 Phases=2

New Load.load_p1ulv10861 conn=wye bus1=p1ulv10861.1.2.3 kV=0.48 Vminpu=0.8 Vmaxpu=1.2 model=1 kW=27.400300000000005 kvar=5.563868218969908 Phases=3

New Load.load_p1ulv10862 conn=wye bus1=p1ulv10862.1.2.3 kV=0.48 Vminpu=0.8 Vmaxpu=1.2 model=1 kW=41.53039999999999 kvar=8.43310739959445 Phases=3

New Load.load_p1ulv10863 conn=wye bus1=p1ulv10863.1.2 kV=0.2080002494301389 Vminpu=0.8 Vmaxpu=1.2 model=1 kW=18.360200000000003 kvar=3.7281976209724457 Phases=2

New Load.load_p1ulv10864 conn=wye bus1=p1ulv10864.1.2.3 kV=0.48 Vminpu=0.8 Vmaxpu=1.2 model=1 kW=20.700200000000002 kvar=4.203354886856015 Phases=3

New Load.load_p1ulv10865 conn=wye bus1=p1ulv10865.1.2.3 kV=0.48 Vminpu=0.8 Vmaxpu=1.2 model=1 kW=28.360299999999995 kvar=5.758804533178552 Phases=3

New Load.load_p1ulv10866 conn=wye bus1=p1ulv10866.1.2 kV=0.2080002494301389 Vminpu=0.8 Vmaxpu=1.2 model=1 kW=7.91008 kvar=1.610344427241867 Phases=2

New Load.load_p1ulv10868 conn=wye bus1=p1ulv10868.1.2.3 kV=0.48 Vminpu=0.8 Vmaxpu=1.2 model=1 kW=50.400499999999994 kvar=10.23425802528413 Phases=3

New Load.load_p1ulv10869 conn=wye bus1=p1ulv10869.1.2.3 kV=0.48 Vminpu=0.8 Vmaxpu=1.2 model=1 kW=177.71200000000002 kvar=36.08596069859017 Phases=3

New Load.load_p1ulv10870 conn=wye bus1=p1ulv10870.1.2.3 kV=0.48 Vminpu=0.8 Vmaxpu=1.2 model=1 kW=136.391 kvar=27.695373782532474 Phases=3

New Load.load_p1ulv10871 conn=wye bus1=p1ulv10870.1.2.3 kV=0.48 Vminpu=0.8 Vmaxpu=1.2 model=1 kW=29.7503 kvar=6.041056071459818 Phases=3

New Load.load_p1ulv10872 conn=wye bus1=p1ulv10872.1.2.3 kV=0.48 Vminpu=0.8 Vmaxpu=1.2 model=1 kW=35.5404 kvar=7.216786022396765 Phases=3

New Load.load_p1ulv10873 conn=wye bus1=p1ulv10872.1.2.3 kV=0.48 Vminpu=0.8 Vmaxpu=1.2 model=1 kW=35.3804 kvar=7.184296636695326 Phases=3

New Load.load_p1ulv10874 conn=wye bus1=p1ulv10874.1.2.3 kV=0.48 Vminpu=0.8 Vmaxpu=1.2 model=1 kW=59.610600000000005 kvar=12.104448595589378 Phases=3

New Load.load_p1ulv10875 conn=wye bus1=p1ulv10875.1.2.3 kV=0.48 Vminpu=0.8 Vmaxpu=1.2 model=1 kW=324.0330000000001 kvar=65.79770698121833 Phases=3

New Load.load_p1ulv10876 conn=wye bus1=p1ulv10876.1.2 kV=0.2080002494301389 Vminpu=0.8 Vmaxpu=1.2 model=1 kW=13.8901 kvar=2.8205051020723833 Phases=2

New Load.load_p1ulv10877 conn=wye bus1=p1ulv10877.1.2.3 kV=0.48 Vminpu=0.8 Vmaxpu=1.2 model=1 kW=38.0904 kvar=7.734585607013479 Phases=3

New Load.load_p1ulv10878 conn=wye bus1=p1ulv10878.1.2.3 kV=0.48 Vminpu=0.8 Vmaxpu=1.2 model=1 kW=184.63200000000003 kvar=37.49112663017748 Phases=3

New Load.load_p1ulv10879 conn=wye bus1=p1ulv10879.1.2.3 kV=0.48 Vminpu=0.8 Vmaxpu=1.2 model=1 kW=48.0005 kvar=9.746917239762524 Phases=3

New Load.load_p1ulv10880 conn=wye bus1=p1ulv10880.1.2.3 kV=0.48 Vminpu=0.8 Vmaxpu=1.2 model=1 kW=32.5003 kvar=6.599467388203331 Phases=3

New Load.load_p1ulv10881 conn=wye bus1=p1ulv10881.1.2 kV=0.2080002494301389 Vminpu=0.8 Vmaxpu=1.2 model=1 kW=13.590100000000001 kvar=2.7595875038821815 Phases=2

New Load.load_p1ulv10882 conn=wye bus1=p1ulv10880.1.2.3 kV=0.48 Vminpu=0.8 Vmaxpu=1.2 model=1 kW=125.721 kvar=25.52873787356765 Phases=3

New Load.load_p1ulv11181 conn=wye bus1=p1ulv11181.1.2 kV=0.2080002494301389 Vminpu=0.8 Vmaxpu=1.2 model=1 kW=3.70004 kvar=0.7493869570665965 Phases=2

New Load.load_p1ulv11182 conn=wye bus1=p1ulv11182.1.2 kV=0.2080002494301389 Vminpu=0.8 Vmaxpu=1.2 model=1 kW=13.7801 kvar=2.7981686494026423 Phases=2

New Load.load_p1ulv11183 conn=wye bus1=p1ulv11183.1.2 kV=0.2080002494301389 Vminpu=0.8 Vmaxpu=1.2 model=1 kW=4.39004 kvar=0.8891359869084231 Phases=2

New Load.load_p1ulv11184 conn=wye bus1=p1ulv11184.1.2 kV=0.2080002494301389 Vminpu=0.8 Vmaxpu=1.2 model=1 kW=8.78009 kvar=1.7782739991651049 Phases=2

New Load.load_p1ulv11185 conn=wye bus1=p1ulv11185.1.2 kV=0.2080002494301389 Vminpu=0.8 Vmaxpu=1.2 model=1 kW=3.11003 kvar=0.6298893844622836 Phases=2

New Load.load_p1ulv11186 conn=wye bus1=p1ulv11186.1.2 kV=0.2080002494301389 Vminpu=0.8 Vmaxpu=1.2 model=1 kW=10.7701 kvar=2.192591037743946 Phases=2

New Load.load_p1ulv11187 conn=wye bus1=p1ulv11187.1.2.3 kV=0.48 Vminpu=0.8 Vmaxpu=1.2 model=1 kW=29.4803 kvar=5.986230233088637 Phases=3

New Load.load_p1ulv11188 conn=wye bus1=p1ulv11188.1.2.3 kV=0.48 Vminpu=0.8 Vmaxpu=1.2 model=1 kW=20.9002 kvar=4.2439666189828165 Phases=3

New Load.load_p1ulv11189 conn=wye bus1=p1ulv11189.1.2 kV=0.2080002494301389 Vminpu=0.8 Vmaxpu=1.2 model=1 kW=4.90005 kvar=0.9898580894334593 Phases=2

New Load.load_p1ulv11190 conn=wye bus1=p1ulv11190.1.2 kV=0.2080002494301389 Vminpu=0.8 Vmaxpu=1.2 model=1 kW=5.520060000000001 kvar=1.1208959902193418 Phases=2

New Load.load_p1ulv11191 conn=wye bus1=p1ulv11191.1.2 kV=0.2080002494301389 Vminpu=0.8 Vmaxpu=1.2 model=1 kW=2.83003 kvar=0.580558608517704 Phases=2

New Load.load_p1ulv11192 conn=wye bus1=p1ulv11192.1.2 kV=0.2080002494301389 Vminpu=0.8 Vmaxpu=1.2 model=1 kW=3.0700300000000005 kvar=0.620176126836135 Phases=2

New Load.load_p1ulv11193 conn=wye bus1=p1ulv11193.1.2 kV=0.2080002494301389 Vminpu=0.8 Vmaxpu=1.2 model=1 kW=3.82004 kvar=0.7796807647859518 Phases=2

New Load.load_p1ulv11194 conn=wye bus1=p1ulv11194.1.2 kV=0.2080002494301389 Vminpu=0.8 Vmaxpu=1.2 model=1 kW=4.03004 kvar=0.8204408116683792 Phases=2

New Load.load_p1ulv11195 conn=wye bus1=p1ulv11195.1.2 kV=0.2080002494301389 Vminpu=0.8 Vmaxpu=1.2 model=1 kW=5.05005 kvar=1.0307292191200343 Phases=2

New Load.load_p1ulv11196 conn=wye bus1=p1ulv11196.1.2 kV=0.2080002494301389 Vminpu=0.8 Vmaxpu=1.2 model=1 kW=5.04005 kvar=1.0207856490641993 Phases=2

New Load.load_p1ulv11197 conn=wye bus1=p1ulv11197.1.2 kV=0.2080002494301389 Vminpu=0.8 Vmaxpu=1.2 model=1 kW=4.46004 kvar=0.9009717601242447 Phases=2

New Load.load_p1ulv11198 conn=wye bus1=p1ulv11198.1.2 kV=0.2080002494301389 Vminpu=0.8 Vmaxpu=1.2 model=1 kW=19.5602 kvar=3.97186801373325 Phases=2

New Load.load_p1ulv11199 conn=wye bus1=p1ulv11199.1.2 kV=0.2080002494301389 Vminpu=0.8 Vmaxpu=1.2 model=1 kW=10.680100000000001 kvar=2.1686868014372296 Phases=2

New Load.load_p1ulv11200 conn=wye bus1=p1ulv11200.1.2 kV=0.2080002494301389 Vminpu=0.8 Vmaxpu=1.2 model=1 kW=8.07008 kvar=1.6386996360092656 Phases=2

New Load.load_p1ulv11201 conn=wye bus1=p1ulv11201.1.2 kV=0.2080002494301389 Vminpu=0.8 Vmaxpu=1.2 model=1 kW=3.3000300000000005 kvar=0.6700996718520332 Phases=2

New Load.load_p1ulv11202 conn=wye bus1=p1ulv11202.1.2 kV=0.2080002494301389 Vminpu=0.8 Vmaxpu=1.2 model=1 kW=6.69007 kvar=1.358476653747733 Phases=2

New Load.load_p1ulv11203 conn=wye bus1=p1ulv11203.1.2 kV=0.2080002494301389 Vminpu=0.8 Vmaxpu=1.2 model=1 kW=7.22007 kvar=1.4698712893922927 Phases=2

New Load.load_p1ulv11204 conn=wye bus1=p1ulv11204.1.2.3 kV=0.48 Vminpu=0.8 Vmaxpu=1.2 model=1 kW=20.9502 kvar=4.254119552014517 Phases=3

New Load.load_p1ulv11205 conn=wye bus1=p1ulv11205.1.2 kV=0.2080002494301389 Vminpu=0.8 Vmaxpu=1.2 model=1 kW=15.2802 kvar=3.102776946219713 Phases=2

New Load.load_p1ulv11206 conn=wye bus1=p1ulv11206.1.2.3 kV=0.48 Vminpu=0.8 Vmaxpu=1.2 model=1 kW=52.03050000000002 kvar=10.565243642117563 Phases=3

New Load.load_p1ulv11207 conn=wye bus1=p1ulv11207.1.2 kV=0.2080002494301389 Vminpu=0.8 Vmaxpu=1.2 model=1 kW=5.640060000000001 kvar=1.1393473568412724 Phases=2

New Load.load_p1ulv11260 conn=wye bus1=p1ulv11260.1.2 kV=0.2080002494301389 Vminpu=0.8 Vmaxpu=1.2 model=1 kW=3.48003 kvar=0.71028378024263 Phases=2

New Load.load_p1ulv11271 conn=wye bus1=p1ulv11271.1.2 kV=0.2080002494301389 Vminpu=0.8 Vmaxpu=1.2 model=1 kW=4.79005 kvar=0.9701519425997696 Phases=2

New Load.load_p1ulv11272 conn=wye bus1=p1ulv11272.1.2 kV=0.2080002494301389 Vminpu=0.8 Vmaxpu=1.2 model=1 kW=3.0500300000000005 kvar=0.6193350066935321 Phases=2

New Load.load_p1ulv17889 conn=wye bus1=p1ulv17889.1.2 kV=0.2080002494301389 Vminpu=0.8 Vmaxpu=1.2 model=1 kW=4.53005 kvar=0.9198658856050712 Phases=2

New Load.load_p1ulv17894 conn=wye bus1=p1ulv17894.1.2 kV=0.2080002494301389 Vminpu=0.8 Vmaxpu=1.2 model=1 kW=3.47003 kvar=0.7100482018344989 Phases=2

New Load.load_p1ulv17898 conn=wye bus1=p1ulv17898.1.2 kV=0.2080002494301389 Vminpu=0.8 Vmaxpu=1.2 model=1 kW=4.04004 kvar=0.8203651113078028 Phases=2

New Load.load_p1ulv17907 conn=wye bus1=p1ulv17907.1.2 kV=0.2080002494301389 Vminpu=0.8 Vmaxpu=1.2 model=1 kW=3.9800400000000002 kvar=0.8102617463034154 Phases=2

New Load.load_p1ulv17908 conn=wye bus1=p1ulv17889.1.2 kV=0.2080002494301389 Vminpu=0.8 Vmaxpu=1.2 model=1 kW=4.36004 kvar=0.8807707807580453 Phases=2

New Load.load_p1ulv17911 conn=wye bus1=p1ulv17911.1.2 kV=0.2080002494301389 Vminpu=0.8 Vmaxpu=1.2 model=1 kW=3.97004 kvar=0.8102961810428216 Phases=2

New Load.load_p1ulv17916 conn=wye bus1=p1ulv17916.1.2 kV=0.2080002494301389 Vminpu=0.8 Vmaxpu=1.2 model=1 kW=4.00004 kvar=0.8101474048239126 Phases=2

New Load.load_p1ulv17921 conn=wye bus1=p1ulv17921.1.2 kV=0.2080002494301389 Vminpu=0.8 Vmaxpu=1.2 model=1 kW=3.78004 kvar=0.7695454848435601 Phases=2

New Load.load_p1ulv17925 conn=wye bus1=p1ulv17925.1.2 kV=0.2080002494301389 Vminpu=0.8 Vmaxpu=1.2 model=1 kW=4.13004 kvar=0.840798942398307 Phases=2

New Load.load_p1ulv24198 conn=wye bus1=p1ulv24198.1.2 kV=0.2080002494301389 Vminpu=0.8 Vmaxpu=1.2 model=1 kW=16.1002 kvar=3.269285047939596 Phases=2

New Load.load_p1ulv24199 conn=wye bus1=p1ulv24199.1.2.3 kV=0.48 Vminpu=0.8 Vmaxpu=1.2 model=1 kW=38.610400000000006 kvar=7.84017611054316 Phases=3

New Load.load_p1ulv24200 conn=wye bus1=p1ulv24200.1.2.3 kV=0.48 Vminpu=0.8 Vmaxpu=1.2 model=1 kW=39.0904 kvar=12.848393145083833 Phases=3

New Load.load_p1ulv24201 conn=wye bus1=p1ulv24201.1.2 kV=0.2080002494301389 Vminpu=0.8 Vmaxpu=1.2 model=1 kW=9.17009 kvar=3.0108075329345856 Phases=2

New Load.load_p1ulv24202 conn=wye bus1=p1ulv24202.1.2.3 kV=0.48 Vminpu=0.8 Vmaxpu=1.2 model=1 kW=35.36039999999999 kvar=7.180235463482645 Phases=3

New Load.load_p1ulv24203 conn=wye bus1=p1ulv24203.1.2.3 kV=0.48 Vminpu=0.8 Vmaxpu=1.2 model=1 kW=39.510400000000004 kvar=8.022928905113762 Phases=3

New Load.load_p1ulv24207 conn=wye bus1=p1ulv24207.1.2 kV=0.2080002494301389 Vminpu=0.8 Vmaxpu=1.2 model=1 kW=16.6302 kvar=3.3769061380756176 Phases=2

New Load.load_p1ulv24208 conn=wye bus1=p1ulv24208.1.2 kV=0.2080002494301389 Vminpu=0.8 Vmaxpu=1.2 model=1 kW=13.0401 kvar=2.6479052405334795 Phases=2

New Load.load_p1ulv24209 conn=wye bus1=p1ulv24209.1.2 kV=0.2080002494301389 Vminpu=0.8 Vmaxpu=1.2 model=1 kW=4.96005 kvar=1.0097734632697801 Phases=2

New Load.load_p1ulv24210 conn=wye bus1=p1ulv24209.1.2 kV=0.2080002494301389 Vminpu=0.8 Vmaxpu=1.2 model=1 kW=4.64005 kvar=0.9397717187211114 Phases=2

New Load.load_p1ulv24211 conn=wye bus1=p1ulv24211.1.2 kV=0.2080002494301389 Vminpu=0.8 Vmaxpu=1.2 model=1 kW=4.95005 kvar=0.999958579116559 Phases=2

New Load.load_p1ulv24212 conn=wye bus1=p1ulv24211.1.2 kV=0.2080002494301389 Vminpu=0.8 Vmaxpu=1.2 model=1 kW=4.80005 kvar=0.9696571100672596 Phases=2

New Load.load_p1ulv24213 conn=wye bus1=p1ulv24213.1.2 kV=0.2080002494301389 Vminpu=0.8 Vmaxpu=1.2 model=1 kW=5.67006 kvar=1.1513547893144422 Phases=2

New Load.load_p1ulv24214 conn=wye bus1=p1ulv24214.1.2 kV=0.2080002494301389 Vminpu=0.8 Vmaxpu=1.2 model=1 kW=3.92004 kvar=0.8000910422905317 Phases=2

New Load.load_p1ulv24215 conn=wye bus1=p1ulv24214.1.2 kV=0.2080002494301389 Vminpu=0.8 Vmaxpu=1.2 model=1 kW=4.08004 kvar=0.8306198770333432 Phases=2

New Load.load_p1ulv24216 conn=wye bus1=p1ulv24216.1.2 kV=0.2080002494301389 Vminpu=0.8 Vmaxpu=1.2 model=1 kW=4.01004 kvar=0.810067352976347 Phases=2

New Load.load_p1ulv24217 conn=wye bus1=p1ulv24216.1.2 kV=0.2080002494301389 Vminpu=0.8 Vmaxpu=1.2 model=1 kW=7.10007 kvar=1.4417307046076748 Phases=2

New Load.load_p1ulv24225 conn=wye bus1=p1ulv24225.1.2.3 kV=0.48 Vminpu=0.8 Vmaxpu=1.2 model=1 kW=131.531 kvar=26.70850869185122 Phases=3

New Load.load_p1ulv24226 conn=wye bus1=p1ulv24226.1.2 kV=0.2080002494301389 Vminpu=0.8 Vmaxpu=1.2 model=1 kW=5.50006 kvar=1.119709405024463 Phases=2

New Load.load_p1ulv24227 conn=wye bus1=p1ulv24227.1.2 kV=0.2080002494301389 Vminpu=0.8 Vmaxpu=1.2 model=1 kW=5.33005 kvar=1.0795207485629381 Phases=2

New Load.load_p1ulv24228 conn=wye bus1=p1ulv24228.1.2 kV=0.2080002494301389 Vminpu=0.8 Vmaxpu=1.2 model=1 kW=10.2001 kvar=2.0712186443329075 Phases=2

New Load.load_p1ulv24229 conn=wye bus1=p1ulv24229.1.2 kV=0.2080002494301389 Vminpu=0.8 Vmaxpu=1.2 model=1 kW=9.08009 kvar=1.8390344469224207 Phases=2

New Load.load_p1ulv26004 conn=wye bus1=p1ulv26004.1.2 kV=0.2080002494301389 Vminpu=0.8 Vmaxpu=1.2 model=1 kW=13.3901 kvar=2.7189757717553813 Phases=2

New Load.load_p1ulv26033 conn=wye bus1=p1ulv26033.1.2 kV=0.2080002494301389 Vminpu=0.8 Vmaxpu=1.2 model=1 kW=10.1501 kvar=2.061065711301207 Phases=2

New Load.load_p1ulv26069 conn=wye bus1=p1ulv26069.1.2 kV=0.2080002494301389 Vminpu=0.8 Vmaxpu=1.2 model=1 kW=1.38001 kvar=0.28022298226153225 Phases=2

New Load.load_p1ulv26098 conn=wye bus1=p1ulv26098.1.2.3 kV=0.48 Vminpu=0.8 Vmaxpu=1.2 model=1 kW=100.411 kvar=20.389323172921006 Phases=3

New Load.load_p1ulv26133 conn=wye bus1=p1ulv26133.1.2 kV=0.2080002494301389 Vminpu=0.8 Vmaxpu=1.2 model=1 kW=3.78004 kvar=0.7695454848435601 Phases=2

New Load.load_p1ulv26203 conn=wye bus1=p1ulv26203.1.2 kV=0.2080002494301389 Vminpu=0.8 Vmaxpu=1.2 model=1 kW=7.31007 kvar=1.4881936070492277 Phases=2

New Load.load_p1ulv26208 conn=wye bus1=p1ulv26208.1.2 kV=0.2080002494301389 Vminpu=0.8 Vmaxpu=1.2 model=1 kW=9.6501 kvar=1.959536380984205 Phases=2

New Load.load_p1ulv26270 conn=wye bus1=p1ulv26270.1.2 kV=0.2080002494301389 Vminpu=0.8 Vmaxpu=1.2 model=1 kW=4.08004 kvar=0.8306198770333432 Phases=2

New Load.load_p1ulv26443 conn=wye bus1=p1ulv26443.1.2 kV=0.2080002494301389 Vminpu=0.8 Vmaxpu=1.2 model=1 kW=4.03004 kvar=0.8204408116683792 Phases=2

New Load.load_p1ulv26481 conn=wye bus1=p1ulv26481.1.2 kV=0.2080002494301389 Vminpu=0.8 Vmaxpu=1.2 model=1 kW=3.95004 kvar=0.8000206635310265 Phases=2

New Load.load_p1ulv26646 conn=wye bus1=p1ulv26646.1.2 kV=0.2080002494301389 Vminpu=0.8 Vmaxpu=1.2 model=1 kW=5.07005 kvar=1.0295175623474335 Phases=2

New Load.load_p1ulv26659 conn=wye bus1=p1ulv26659.1.2.3 kV=0.48 Vminpu=0.8 Vmaxpu=1.2 model=1 kW=129.791 kvar=26.355186622348054 Phases=3

New Load.load_p1ulv26707 conn=wye bus1=p1ulv26707.1.2 kV=0.2080002494301389 Vminpu=0.8 Vmaxpu=1.2 model=1 kW=4.65005 kvar=0.9490881091017151 Phases=2

New Load.load_p1ulv26773 conn=wye bus1=p1ulv26773.1.2 kV=0.2080002494301389 Vminpu=0.8 Vmaxpu=1.2 model=1 kW=13.7001 kvar=2.781923956551922 Phases=2

New Load.load_p1ulv26802 conn=wye bus1=p1ulv26802.1.2.3 kV=0.48 Vminpu=0.8 Vmaxpu=1.2 model=1 kW=107.281 kvar=21.784336171476614 Phases=3

New Load.load_p1ulv26826 conn=wye bus1=p1ulv26826.1.2.3 kV=0.48 Vminpu=0.8 Vmaxpu=1.2 model=1 kW=29.5703 kvar=6.0045055125456965 Phases=3

New Load.load_p1ulv26862 conn=wye bus1=p1ulv26133.1.2 kV=0.2080002494301389 Vminpu=0.8 Vmaxpu=1.2 model=1 kW=3.82004 kvar=0.7796807647859518 Phases=2

New Load.load_p1ulv26875 conn=wye bus1=p1ulv26875.1.2.3 kV=0.48 Vminpu=0.8 Vmaxpu=1.2 model=1 kW=293.883 kvar=59.675488363103085 Phases=3

New Load.load_p1ulv26932 conn=wye bus1=p1ulv26932.1.2 kV=0.2080002494301389 Vminpu=0.8 Vmaxpu=1.2 model=1 kW=3.54004 kvar=0.7206859710917335 Phases=2

New Load.load_p1ulv27001 conn=wye bus1=p1ulv27001.1.2 kV=0.2080002494301389 Vminpu=0.8 Vmaxpu=1.2 model=1 kW=2.95003 kvar=0.6005709639720869 Phases=2

New Load.load_p1ulv27072 conn=wye bus1=p1ulv27072.1.2 kV=0.2080002494301389 Vminpu=0.8 Vmaxpu=1.2 model=1 kW=2.71003 kvar=0.5502950620779706 Phases=2

New Load.load_p1ulv27150 conn=wye bus1=p1ulv27150.1.2 kV=0.2080002494301389 Vminpu=0.8 Vmaxpu=1.2 model=1 kW=4.38004 kvar=0.8894050559233643 Phases=2

New Load.load_p1ulv27180 conn=wye bus1=p1ulv27180.1.2.3 kV=0.48 Vminpu=0.8 Vmaxpu=1.2 model=1 kW=32.16030000000001 kvar=6.530427443587768 Phases=3

New Load.load_p1ulv27215 conn=wye bus1=p1ulv27215.1.2 kV=0.2080002494301389 Vminpu=0.8 Vmaxpu=1.2 model=1 kW=5.91006 kvar=1.200088867866603 Phases=2

New Load.load_p1ulv27235 conn=wye bus1=p1ulv27235.1.2 kV=0.2080002494301389 Vminpu=0.8 Vmaxpu=1.2 model=1 kW=3.70004 kvar=0.7493869570665965 Phases=2

New Load.load_p1ulv27276 conn=wye bus1=p1ulv27276.1.2 kV=0.2080002494301389 Vminpu=0.8 Vmaxpu=1.2 model=1 kW=3.0100300000000004 kvar=0.6096359018765115 Phases=2

New Load.load_p1ulv27319 conn=wye bus1=p1ulv27319.1.2 kV=0.2080002494301389 Vminpu=0.8 Vmaxpu=1.2 model=1 kW=3.9400400000000007 kvar=0.8000592452444024 Phases=2

New Load.load_p1ulv27382 conn=wye bus1=p1ulv27382.1.2 kV=0.2080002494301389 Vminpu=0.8 Vmaxpu=1.2 model=1 kW=4.18004 kvar=0.8509780077632708 Phases=2

New Load.load_p1ulv27656 conn=wye bus1=p1ulv27656.1.2 kV=0.2080002494301389 Vminpu=0.8 Vmaxpu=1.2 model=1 kW=4.04004 kvar=0.8203651113078028 Phases=2

New Load.load_p1ulv27681 conn=wye bus1=p1ulv27681.1.2 kV=0.2080002494301389 Vminpu=0.8 Vmaxpu=1.2 model=1 kW=9.19009 kvar=1.870930536398015 Phases=2

New Load.load_p1ulv27720 conn=wye bus1=p1ulv27720.1.2 kV=0.2080002494301389 Vminpu=0.8 Vmaxpu=1.2 model=1 kW=4.21004 kvar=0.8592808470538134 Phases=2

New Load.load_p1ulv27733 conn=wye bus1=p1ulv27733.1.2.3 kV=0.48 Vminpu=0.8 Vmaxpu=1.2 model=1 kW=144.861 kvar=29.4152806381025 Phases=3

New Load.load_p1ulv27785 conn=wye bus1=p1ulv27785.1.2 kV=0.2080002494301389 Vminpu=0.8 Vmaxpu=1.2 model=1 kW=8.38008 kvar=1.7016478208058066 Phases=2

New Load.load_p1ulv27861 conn=wye bus1=p1ulv27861.1.2 kV=0.2080002494301389 Vminpu=0.8 Vmaxpu=1.2 model=1 kW=14.680100000000001 kvar=4.819904239133205 Phases=2

New Load.load_p1ulv27925 conn=wye bus1=p1ulv27925.1.2.3 kV=0.48 Vminpu=0.8 Vmaxpu=1.2 model=1 kW=27.000300000000003 kvar=5.482644754716306 Phases=3

New Load.load_p1ulv27996 conn=wye bus1=p1ulv27996.1.2 kV=0.2080002494301389 Vminpu=0.8 Vmaxpu=1.2 model=1 kW=7.61008 kvar=1.5492700350520838 Phases=2

New Load.load_p1ulv28028 conn=wye bus1=p1ulv28028.1.2 kV=0.2080002494301389 Vminpu=0.8 Vmaxpu=1.2 model=1 kW=18.0602 kvar=3.667280022782244 Phases=2

New Load.load_p1ulv28075 conn=wye bus1=p1ulv28075.1.2 kV=0.2080002494301389 Vminpu=0.8 Vmaxpu=1.2 model=1 kW=4.80005 kvar=0.9797035253585847 Phases=2

New Load.load_p1ulv28129 conn=wye bus1=p1ulv28129.1.2 kV=0.2080002494301389 Vminpu=0.8 Vmaxpu=1.2 model=1 kW=3.48003 kvar=0.71028378024263 Phases=2

New Load.load_p1ulv28208 conn=wye bus1=p1ulv28208.1.2 kV=0.2080002494301389 Vminpu=0.8 Vmaxpu=1.2 model=1 kW=4.36004 kvar=0.8807707807580453 Phases=2

New Load.load_p1ulv28238 conn=wye bus1=p1ulv28238.1.2 kV=0.2080002494301389 Vminpu=0.8 Vmaxpu=1.2 model=1 kW=3.72004 kvar=0.7592704872813721 Phases=2

New Load.load_p1ulv28314 conn=wye bus1=p1ulv28314.1.2 kV=0.2080002494301389 Vminpu=0.8 Vmaxpu=1.2 model=1 kW=5.88006 kvar=1.1909169281329426 Phases=2

New Load.load_p1ulv28368 conn=wye bus1=p1ulv28368.1.2 kV=0.2080002494301389 Vminpu=0.8 Vmaxpu=1.2 model=1 kW=11.0601 kvar=2.2516296168607366 Phases=2

New Load.load_p1ulv28400 conn=wye bus1=p1ulv28400.1.2 kV=0.2080002494301389 Vminpu=0.8 Vmaxpu=1.2 model=1 kW=8.02008 kvar=1.628546702977565 Phases=2

New Load.load_p1ulv28436 conn=wye bus1=p1ulv28436.1.2 kV=0.2080002494301389 Vminpu=0.8 Vmaxpu=1.2 model=1 kW=1.38001 kvar=0.28022298226153225 Phases=2

New Load.load_p1ulv28589 conn=wye bus1=p1ulv28589.1.2 kV=0.2080002494301389 Vminpu=0.8 Vmaxpu=1.2 model=1 kW=3.88004 kvar=0.7899036155734878 Phases=2

New Load.load_p1ulv28618 conn=wye bus1=p1ulv28618.1.2 kV=0.2080002494301389 Vminpu=0.8 Vmaxpu=1.2 model=1 kW=14.0501 kvar=2.8529944877738234 Phases=2

New Load.load_p1ulv28649 conn=wye bus1=p1ulv28649.1.2 kV=0.2080002494301389 Vminpu=0.8 Vmaxpu=1.2 model=1 kW=3.99004 kvar=0.8102121782761024 Phases=2

New Load.load_p1ulv28728 conn=wye bus1=p1ulv28728.1.2 kV=0.2080002494301389 Vminpu=0.8 Vmaxpu=1.2 model=1 kW=3.38003 kvar=0.6898735027380501 Phases=2

New Load.load_p1ulv28816 conn=wye bus1=p1ulv28816.1.2 kV=0.2080002494301389 Vminpu=0.8 Vmaxpu=1.2 model=1 kW=2.59003 kvar=0.5299798976370255 Phases=2

New Load.load_p1ulv28852 conn=wye bus1=p1ulv28852.1.2 kV=0.2080002494301389 Vminpu=0.8 Vmaxpu=1.2 model=1 kW=3.65004 kvar=0.7392602157737106 Phases=2

New Load.load_p1ulv28863 conn=wye bus1=p1ulv28863.1.2.3 kV=0.48 Vminpu=0.8 Vmaxpu=1.2 model=1 kW=115.791 kvar=23.512365373471994 Phases=3

New Load.load_p1ulv28894 conn=wye bus1=p1ulv28894.1.2 kV=0.2080002494301389 Vminpu=0.8 Vmaxpu=1.2 model=1 kW=4.13004 kvar=0.840798942398307 Phases=2

New Load.load_p1ulv28961 conn=wye bus1=p1ulv28961.1.2 kV=0.2080002494301389 Vminpu=0.8 Vmaxpu=1.2 model=1 kW=3.61004 kvar=0.7292634355115489 Phases=2

New Load.load_p1ulv29026 conn=wye bus1=p1ulv29026.1.2 kV=0.2080002494301389 Vminpu=0.8 Vmaxpu=1.2 model=1 kW=3.88004 kvar=0.7899036155734878 Phases=2

New Load.load_p1ulv29050 conn=wye bus1=p1ulv29050.1.2 kV=0.2080002494301389 Vminpu=0.8 Vmaxpu=1.2 model=1 kW=10.3201 kvar=2.0901796563342514 Phases=2

New Load.load_p1ulv29303 conn=wye bus1=p1ulv29303.1.2 kV=0.2080002494301389 Vminpu=0.8 Vmaxpu=1.2 model=1 kW=3.59004 kvar=0.7308650364566972 Phases=2

New Load.load_p1ulv29317 conn=wye bus1=p1ulv29317.1.2.3 kV=0.48 Vminpu=0.8 Vmaxpu=1.2 model=1 kW=197.752 kvar=40.15525625769561 Phases=3
