New Line.l(r:p1ulv347-udm814) Units=km Length=0.0190987 bus1=udm814.1.2 bus2=p1ulv347.1.2 switch=n enabled=y phases=2 Linecode=1P_UG_AL_1/0_Brenau_0_416_0_2_2

New Line.l(r:udm814-udt220lv) Units=km Length=0.018666900000000004 bus1=udt220lv.1.2 bus2=udm814.1.2 switch=n enabled=y phases=2 Linecode=1P_UG_AL_1/0_Brenau_0_416_0_2_2

New Line.l(r:p1ulv3680-udm815) Units=km Length=0.017194000000000004 bus1=udm815.1.2 bus2=p1ulv3680.1.2 switch=n enabled=y phases=2 Linecode=1P_UG_AL_1/0_Brenau_0_416_0_2_2

New Line.l(r:p1ulv3681-udm815) Units=km Length=0.0113873 bus1=udm815.1.2 bus2=p1ulv3681.1.2 switch=n enabled=y phases=2 Linecode=1P_UG_AL_1/0_Brenau_0_416_0_2_2

New Line.l(r:udm815-udt220lv) Units=km Length=0.00933814 bus1=udt220lv.1.2 bus2=udm815.1.2 switch=n enabled=y phases=2 Linecode=1P_UG_AL_1/0_Brenau_0_416_0_2_2

New Line.l(r:p1ulv40120-udt223lv) Units=km Length=0.01665 bus1=udt223lv.1.2 bus2=p1ulv40120.1.2 switch=n enabled=y phases=2 Linecode=1P_OH_AL_2/0_Rucina_0_416_0_2_2

New Line.l(r:p1ulv350-udm826) Units=km Length=0.0178047 bus1=udm826.1.2 bus2=p1ulv350.1.2 switch=n enabled=y phases=2 Linecode=1P_OH_AL_2/0_Rucina_0_416_0_2_2

New Line.l(r:udm826-udt223lv) Units=km Length=0.019195 bus1=udt223lv.1.2 bus2=udm826.1.2 switch=n enabled=y phases=2 Linecode=1P_OH_AL_2/0_Rucina_0_416_0_2_2

New Line.l(r:p1ulv352-udm827) Units=km Length=0.0176358 bus1=udm827.1.2 bus2=p1ulv352.1.2 switch=n enabled=y phases=2 Linecode=1P_OH_AL_2/0_Rucina_0_416_0_2_2

New Line.l(r:udm827-udt223lv) Units=km Length=0.019205 bus1=udt223lv.1.2 bus2=udm827.1.2 switch=n enabled=y phases=2 Linecode=1P_OH_AL_2/0_Rucina_0_416_0_2_2

New Line.l(r:p1ulv353-udt224lv) Units=km Length=0.017851300000000004 bus1=udt224lv.1.2 bus2=p1ulv353.1.2 switch=n enabled=y phases=2 Linecode=1P_OH_AL_2/0_Rucina_0_416_0_2_2

New Line.l(r:p1ulv51114-udt224lv) Units=km Length=0.05557490000000001 bus1=udt224lv.1.2 bus2=p1ulv51114.1.2 switch=n enabled=y phases=2 Linecode=1P_OH_AL_4/0_Zuzara_0_416_0_2_2

New Line.l(r:p1ulv356-udm830) Units=km Length=0.0179057 bus1=udm830.1.2 bus2=p1ulv356.1.2 switch=n enabled=y phases=2 Linecode=1P_OH_AL_2/0_Rucina_0_416_0_2_2

New Line.l(r:p1ulv60212-udm834) Units=km Length=0.018291 bus1=udm834.1.2 bus2=p1ulv60212.1.2 switch=n enabled=y phases=2 Linecode=1P_OH_AL_2/0_Rucina_0_416_0_2_2

New Line.l(r:udm830-udm834) Units=km Length=0.015454 bus1=udm830.1.2 bus2=udm834.1.2 switch=n enabled=y phases=2 Linecode=1P_OH_AL_2/0_Rucina_0_416_0_2_2

New Line.l(r:udm830-udt224lv) Units=km Length=0.015463700000000002 bus1=udt224lv.1.2 bus2=udm830.1.2 switch=n enabled=y phases=2 Linecode=1P_OH_AL_2/0_Rucina_0_416_0_2_2

New Line.l(r:p1ulv43698-udm831) Units=km Length=0.0167027 bus1=udm831.1.2 bus2=p1ulv43698.1.2 switch=n enabled=y phases=2 Linecode=1P_OH_AL_2/0_Rucina_0_416_0_2_2

New Line.l(r:p1ulv46933-udm832) Units=km Length=0.0177732 bus1=udm832.1.2 bus2=p1ulv46933.1.2 switch=n enabled=y phases=2 Linecode=1P_OH_AL_2/0_Rucina_0_416_0_2_2

New Line.l(r:udm831-udm832) Units=km Length=0.0155637 bus1=udm831.1.2 bus2=udm832.1.2 switch=n enabled=y phases=2 Linecode=1P_OH_AL_2/0_Rucina_0_416_0_2_2

New Line.l(r:udm831-udt224lv) Units=km Length=0.0155739 bus1=udt224lv.1.2 bus2=udm831.1.2 switch=n enabled=y phases=2 Linecode=1P_OH_AL_2/0_Rucina_0_416_0_2_2

New Line.l(r:p1ulv357-udm840) Units=km Length=0.0150536 bus1=udm840.1.2 bus2=p1ulv357.1.2 switch=n enabled=y phases=2 Linecode=1P_UG_AL_1/0_Brenau_0_416_0_2_2

New Line.l(r:udm840-udt227lv) Units=km Length=0.0139386 bus1=udt227lv.1.2 bus2=udm840.1.2 switch=n enabled=y phases=2 Linecode=1P_UG_AL_1/0_Brenau_0_416_0_2_2

New Line.l(r:p1ulv46442-udm841) Units=km Length=0.015092 bus1=udm841.1.2 bus2=p1ulv46442.1.2 switch=n enabled=y phases=2 Linecode=1P_UG_AL_1/0_Brenau_0_416_0_2_2

New Line.l(r:p1ulv49728-udm841) Units=km Length=0.0157262 bus1=udm841.1.2 bus2=p1ulv49728.1.2 switch=n enabled=y phases=2 Linecode=1P_UG_AL_1/0_Brenau_0_416_0_2_2

New Line.l(r:p1ulv51548-udm841) Units=km Length=0.0304792 bus1=udm841.1.2 bus2=p1ulv51548.1.2 switch=n enabled=y phases=2 Linecode=1P_UG_AL_1/0_Brenau_0_416_0_2_2

New Line.l(r:udm841-udt227lv) Units=km Length=0.00697218 bus1=udt227lv.1.2 bus2=udm841.1.2 switch=n enabled=y phases=2 Linecode=1P_UG_AL_1/0_Brenau_0_416_0_2_2

New Line.l(r:p1ulv4904-udm877) Units=km Length=0.048475 bus1=udm877.1.2 bus2=p1ulv4904.1.2 switch=n enabled=y phases=2 Linecode=1P_UG_AL_1/0_Brenau_0_416_0_2_2

New Line.l(r:p1ulv367-udm876) Units=km Length=0.0160991 bus1=udm876.1.2 bus2=p1ulv367.1.2 switch=n enabled=y phases=2 Linecode=1P_UG_AL_1/0_Brenau_0_416_0_2_2

New Line.l(r:p1ulv42091-udm880) Units=km Length=0.0223525 bus1=udm880.1.2 bus2=p1ulv42091.1.2 switch=n enabled=y phases=2 Linecode=1P_UG_AL_1/0_Brenau_0_416_0_2_2

New Line.l(r:udm876-udm880) Units=km Length=0.006295790000000001 bus1=udm876.1.2 bus2=udm880.1.2 switch=n enabled=y phases=2 Linecode=1P_UG_AL_1/0_Brenau_0_416_0_2_2

New Line.l(r:udm876-udm877) Units=km Length=0.00922213 bus1=udm877.1.2 bus2=udm876.1.2 switch=n enabled=y phases=2 Linecode=1P_UG_AL_1/0_Brenau_0_416_0_2_2

New Line.l(r:udm877-udt236lv) Units=km Length=0.0186466 bus1=udt236lv.1.2 bus2=udm877.1.2 switch=n enabled=y phases=2 Linecode=1P_UG_AL_4/0_Sweetbriar_0_416_0_2_2

New Line.l(r:p1ulv4909-udm878) Units=km Length=0.052211 bus1=udm878.1.2 bus2=p1ulv4909.1.2 switch=n enabled=y phases=2 Linecode=1P_UG_AL_1/0_Brenau_0_416_0_2_2

New Line.l(r:p1ulv59526-udm878) Units=km Length=0.0196855 bus1=udm878.1.2 bus2=p1ulv59526.1.2 switch=n enabled=y phases=2 Linecode=1P_UG_AL_1/0_Brenau_0_416_0_2_2

New Line.l(r:p1ulv41781-udm879) Units=km Length=0.0159984 bus1=udm879.1.2 bus2=p1ulv41781.1.2 switch=n enabled=y phases=2 Linecode=1P_UG_AL_1/0_Brenau_0_416_0_2_2

New Line.l(r:udm878-udm879) Units=km Length=0.00810583 bus1=udm878.1.2 bus2=udm879.1.2 switch=n enabled=y phases=2 Linecode=1P_UG_AL_1/0_Brenau_0_416_0_2_2

New Line.l(r:udm878-udt236lv) Units=km Length=0.0256352 bus1=udt236lv.1.2 bus2=udm878.1.2 switch=n enabled=y phases=2 Linecode=1P_UG_AL_4/0_Sweetbriar_0_416_0_2_2

New Line.l(r:p1ulv379-udt244lv) Units=km Length=0.0213204 bus1=udt244lv.1.2 bus2=p1ulv379.1.2 switch=n enabled=y phases=2 Linecode=1P_UG_AL_1/0_Brenau_0_416_0_2_2

New Line.l(r:p1ulv52469-udm913) Units=km Length=0.019281 bus1=udm913.1.2 bus2=p1ulv52469.1.2 switch=n enabled=y phases=2 Linecode=1P_UG_AL_1/0_Brenau_0_416_0_2_2

New Line.l(r:udm913-udt244lv) Units=km Length=0.0159761 bus1=udt244lv.1.2 bus2=udm913.1.2 switch=n enabled=y phases=2 Linecode=1P_UG_AL_1/0_Brenau_0_416_0_2_2

New Line.l(r:p1ulv52760-udm914) Units=km Length=0.0225469 bus1=udm914.1.2 bus2=p1ulv52760.1.2 switch=n enabled=y phases=2 Linecode=1P_UG_AL_1/0_Brenau_0_416_0_2_2

New Line.l(r:udm914-udt244lv) Units=km Length=0.021185 bus1=udt244lv.1.2 bus2=udm914.1.2 switch=n enabled=y phases=2 Linecode=1P_UG_AL_1/0_Brenau_0_416_0_2_2

New Line.l(r:p1ulv60586-udt251lv) Units=km Length=0.0198381 bus1=udt251lv.1.2 bus2=p1ulv60586.1.2 switch=n enabled=y phases=2 Linecode=1P_UG_AL_1/0_Brenau_0_416_0_2_2

New Line.l(r:p1ulv391-udm935) Units=km Length=0.03821 bus1=udm935.1.2 bus2=p1ulv391.1.2 switch=n enabled=y phases=2 Linecode=1P_UG_AL_1/0_Brenau_0_416_0_2_2

New Line.l(r:p1ulv57993-udm936) Units=km Length=0.0326604 bus1=udm936.1.2 bus2=p1ulv57993.1.2 switch=n enabled=y phases=2 Linecode=1P_UG_AL_1/0_Brenau_0_416_0_2_2

New Line.l(r:udm935-udm936) Units=km Length=0.0196759 bus1=udm935.1.2 bus2=udm936.1.2 switch=n enabled=y phases=2 Linecode=1P_UG_AL_1/0_Brenau_0_416_0_2_2

New Line.l(r:udm935-udt251lv) Units=km Length=0.009843220000000001 bus1=udt251lv.1.2 bus2=udm935.1.2 switch=n enabled=y phases=2 Linecode=1P_UG_AL_1/0_Brenau_0_416_0_2_2

New Line.l(r:p1ulv60274-udm937) Units=km Length=0.03765210000000001 bus1=udm937.1.2 bus2=p1ulv60274.1.2 switch=n enabled=y phases=2 Linecode=1P_UG_AL_1/0_Brenau_0_416_0_2_2

New Line.l(r:udm937-udt251lv) Units=km Length=0.0295197 bus1=udt251lv.1.2 bus2=udm937.1.2 switch=n enabled=y phases=2 Linecode=1P_UG_AL_1/0_Brenau_0_416_0_2_2

New Line.l(r:p1ulv3645-udm6908) Units=km Length=0.0159143 bus1=udm6908.1.2 bus2=p1ulv3645.1.2 switch=n enabled=y phases=2 Linecode=1P_OH_AL_2/0_Rucina_0_416_0_2_2

New Line.l(r:p1ulv3649-udm6908) Units=km Length=0.0169871 bus1=udm6908.1.2 bus2=p1ulv3649.1.2 switch=n enabled=y phases=2 Linecode=1P_OH_AL_2/0_Rucina_0_416_0_2_2

New Line.l(r:udm6908-udt1754lv) Units=km Length=0.0155092 bus1=udt1754lv.1.2 bus2=udm6908.1.2 switch=n enabled=y phases=2 Linecode=1P_OH_AL_2/0_Rucina_0_416_0_2_2

New Line.l(r:p1ulv3653-udm6910) Units=km Length=0.0144368 bus1=udm6910.1.2 bus2=p1ulv3653.1.2 switch=n enabled=y phases=2 Linecode=1P_OH_AL_2/0_Rucina_0_416_0_2_2

New Line.l(r:udm6910-udt1754lv) Units=km Length=0.0279435 bus1=udt1754lv.1.2 bus2=udm6910.1.2 switch=n enabled=y phases=2 Linecode=1P_OH_AL_4/0_Zuzara_0_416_0_2_2

New Line.l(r:p1ulv3648-udt1755lv) Units=km Length=0.0148064 bus1=udt1755lv.1.2 bus2=p1ulv3648.1.2 switch=n enabled=y phases=2 Linecode=1P_OH_AL_2/0_Rucina_0_416_0_2_2

New Line.l(r:p1ulv3659-udt1755lv) Units=km Length=0.0108923 bus1=udt1755lv.1.2 bus2=p1ulv3659.1.2 switch=n enabled=y phases=2 Linecode=1P_OH_AL_2/0_Rucina_0_416_0_2_2

New Line.l(r:p1ulv8137-udt1755lv) Units=km Length=0.0111837 bus1=udt1755lv.1.2 bus2=p1ulv8137.1.2 switch=n enabled=y phases=2 Linecode=1P_OH_AL_2/0_Rucina_0_416_0_2_2

New Line.l(r:p1ulv3647-udm6911) Units=km Length=0.016315900000000005 bus1=udm6911.1.2 bus2=p1ulv3647.1.2 switch=n enabled=y phases=2 Linecode=1P_OH_AL_2/0_Rucina_0_416_0_2_2

New Line.l(r:p1ulv8134-udm6911) Units=km Length=0.0103672 bus1=udm6911.1.2 bus2=p1ulv8134.1.2 switch=n enabled=y phases=2 Linecode=1P_OH_AL_2/0_Rucina_0_416_0_2_2

New Line.l(r:p1ulv8135-udm6911) Units=km Length=0.0102329 bus1=udm6911.1.2 bus2=p1ulv8135.1.2 switch=n enabled=y phases=2 Linecode=1P_OH_AL_2/0_Rucina_0_416_0_2_2

New Line.l(r:udm6911-udt1755lv) Units=km Length=0.0155092 bus1=udt1755lv.1.2 bus2=udm6911.1.2 switch=n enabled=y phases=2 Linecode=1P_OH_AL_2/0_Rucina_0_416_0_2_2

New Line.l(r:p1ulv3660-udm6916) Units=km Length=0.0121146 bus1=udm6916.1.2 bus2=p1ulv3660.1.2 switch=n enabled=y phases=2 Linecode=1P_OH_AL_2/0_Rucina_0_416_0_2_2

New Line.l(r:p1ulv3661-udm6916) Units=km Length=0.0120792 bus1=udm6916.1.2 bus2=p1ulv3661.1.2 switch=n enabled=y phases=2 Linecode=1P_OH_AL_2/0_Rucina_0_416_0_2_2

New Line.l(r:p1ulv3654-udm6913) Units=km Length=0.0134131 bus1=udm6913.1.2 bus2=p1ulv3654.1.2 switch=n enabled=y phases=2 Linecode=1P_OH_AL_2/0_Rucina_0_416_0_2_2

New Line.l(r:p1ulv3656-udm6913) Units=km Length=0.0142536 bus1=udm6913.1.2 bus2=p1ulv3656.1.2 switch=n enabled=y phases=2 Linecode=1P_OH_AL_2/0_Rucina_0_416_0_2_2

New Line.l(r:udm6913-udm6916) Units=km Length=0.012440700000000002 bus1=udm6916.1.2 bus2=udm6913.1.2 switch=n enabled=y phases=2 Linecode=1P_OH_AL_2/0_Rucina_0_416_0_2_2

New Line.l(r:udm6916-udt1755lv) Units=km Length=0.0155028 bus1=udt1755lv.1.2 bus2=udm6916.1.2 switch=n enabled=y phases=2 Linecode=1P_OH_AL_2/0_Rucina_0_416_0_2_2

New Line.l(r:p1ulv3650-udt1756lv) Units=km Length=0.0169725 bus1=udt1756lv.1.2 bus2=p1ulv3650.1.2 switch=n enabled=y phases=2 Linecode=1P_OH_AL_2/0_Rucina_0_416_0_2_2

New Line.l(r:p1ulv3652-udt1756lv) Units=km Length=0.0178455 bus1=udt1756lv.1.2 bus2=p1ulv3652.1.2 switch=n enabled=y phases=2 Linecode=1P_OH_AL_2/0_Rucina_0_416_0_2_2

New Line.l(r:p1ulv3662-udt1757lv) Units=km Length=0.014696000000000002 bus1=udt1757lv.1.2 bus2=p1ulv3662.1.2 switch=n enabled=y phases=2 Linecode=1P_OH_AL_2/0_Rucina_0_416_0_2_2

New Line.l(r:p1ulv8168-udt1757lv) Units=km Length=0.0121783 bus1=udt1757lv.1.2 bus2=p1ulv8168.1.2 switch=n enabled=y phases=2 Linecode=1P_OH_AL_2/0_Rucina_0_416_0_2_2

New Line.l(r:p1ulv8169-udt1757lv) Units=km Length=0.00669214 bus1=udt1757lv.1.2 bus2=p1ulv8169.1.2 switch=n enabled=y phases=2 Linecode=1P_OH_AL_2/0_Rucina_0_416_0_2_2

New Line.l(r:p1ulv3657-udm6923) Units=km Length=0.0144953 bus1=udm6923.1.2 bus2=p1ulv3657.1.2 switch=n enabled=y phases=2 Linecode=1P_OH_AL_2/0_Rucina_0_416_0_2_2

New Line.l(r:p1ulv3658-udm6923) Units=km Length=0.014667100000000002 bus1=udm6923.1.2 bus2=p1ulv3658.1.2 switch=n enabled=y phases=2 Linecode=1P_OH_AL_2/0_Rucina_0_416_0_2_2

New Line.l(r:udm6923-udt1757lv) Units=km Length=0.0270443 bus1=udt1757lv.1.2 bus2=udm6923.1.2 switch=n enabled=y phases=2 Linecode=1P_OH_AL_4/0_Zuzara_0_416_0_2_2

New Line.l(r:p1ulv3664-udm6926) Units=km Length=0.0153597 bus1=udm6926.1.2 bus2=p1ulv3664.1.2 switch=n enabled=y phases=2 Linecode=1P_OH_AL_2/0_Rucina_0_416_0_2_2

New Line.l(r:p1ulv3665-udm6926) Units=km Length=0.014976 bus1=udm6926.1.2 bus2=p1ulv3665.1.2 switch=n enabled=y phases=2 Linecode=1P_OH_AL_2/0_Rucina_0_416_0_2_2

New Line.l(r:udm6926-udt1757lv) Units=km Length=0.0160406 bus1=udt1757lv.1.2 bus2=udm6926.1.2 switch=n enabled=y phases=2 Linecode=1P_OH_AL_2/0_Rucina_0_416_0_2_2

New Line.l(r:p1ulv3666-udt1758lv) Units=km Length=0.0164662 bus1=udt1758lv.1.2 bus2=p1ulv3666.1.2 switch=n enabled=y phases=2 Linecode=1P_OH_AL_2/0_Rucina_0_416_0_2_2

New Line.l(r:p1ulv3668-udt1758lv) Units=km Length=0.016758 bus1=udt1758lv.1.2 bus2=p1ulv3668.1.2 switch=n enabled=y phases=2 Linecode=1P_OH_AL_2/0_Rucina_0_416_0_2_2

New Line.l(r:p1ulv3669-udt1758lv) Units=km Length=0.0185947 bus1=udt1758lv.1.2 bus2=p1ulv3669.1.2 switch=n enabled=y phases=2 Linecode=1P_OH_AL_2/0_Rucina_0_416_0_2_2

New Line.l(r:p1ulv3670-udt1759lv) Units=km Length=0.0146081 bus1=udt1759lv.1.2 bus2=p1ulv3670.1.2 switch=n enabled=y phases=2 Linecode=1P_OH_AL_2/0_Rucina_0_416_0_2_2

New Line.l(r:p1ulv3671-udt1759lv) Units=km Length=0.0153068 bus1=udt1759lv.1.2 bus2=p1ulv3671.1.2 switch=n enabled=y phases=2 Linecode=1P_OH_AL_2/0_Rucina_0_416_0_2_2

New Line.l(r:p1ulv8164-udm6935) Units=km Length=0.0154815 bus1=udm6935.1.2 bus2=p1ulv8164.1.2 switch=n enabled=y phases=2 Linecode=1P_OH_AL_2/0_Rucina_0_416_0_2_2

New Line.l(r:udm6935-udt1759lv) Units=km Length=0.0502997 bus1=udt1759lv.1.2 bus2=udm6935.1.2 switch=n enabled=y phases=2 Linecode=1P_OH_AL_4/0_Zuzara_0_416_0_2_2

New Line.l(r:p1ulv3672-udt1760lv) Units=km Length=0.0141531 bus1=udt1760lv.1.2 bus2=p1ulv3672.1.2 switch=n enabled=y phases=2 Linecode=1P_OH_AL_2/0_Rucina_0_416_0_2_2

New Line.l(r:p1ulv3674-udt1760lv) Units=km Length=0.0146108 bus1=udt1760lv.1.2 bus2=p1ulv3674.1.2 switch=n enabled=y phases=2 Linecode=1P_OH_AL_2/0_Rucina_0_416_0_2_2

New Line.l(r:p1ulv3675-udt1760lv) Units=km Length=0.0166501 bus1=udt1760lv.1.2 bus2=p1ulv3675.1.2 switch=n enabled=y phases=2 Linecode=1P_OH_AL_2/0_Rucina_0_416_0_2_2

New Line.l(r:p1ulv3678-udt1761lv) Units=km Length=0.0224099 bus1=udt1761lv.1.2 bus2=p1ulv3678.1.2 switch=n enabled=y phases=2 Linecode=1P_UG_AL_1/0_Brenau_0_416_0_2_2

New Line.l(r:p1ulv3676-udm6939) Units=km Length=0.0228462 bus1=udm6939.1.2 bus2=p1ulv3676.1.2 switch=n enabled=y phases=2 Linecode=1P_UG_AL_1/0_Brenau_0_416_0_2_2

New Line.l(r:p1ulv3677-udm6939) Units=km Length=0.0226346 bus1=udm6939.1.2 bus2=p1ulv3677.1.2 switch=n enabled=y phases=2 Linecode=1P_UG_AL_1/0_Brenau_0_416_0_2_2

New Line.l(r:udm6939-udt1761lv) Units=km Length=0.00993542 bus1=udt1761lv.1.2 bus2=udm6939.1.2 switch=n enabled=y phases=2 Linecode=1P_UG_AL_1/0_Brenau_0_416_0_2_2

New Line.l(r:p1ulv8170-udm6942) Units=km Length=0.0220185 bus1=udm6942.1.2 bus2=p1ulv8170.1.2 switch=n enabled=y phases=2 Linecode=1P_UG_AL_1/0_Brenau_0_416_0_2_2

New Line.l(r:udm6942-udt1761lv) Units=km Length=0.00993924 bus1=udt1761lv.1.2 bus2=udm6942.1.2 switch=n enabled=y phases=2 Linecode=1P_UG_AL_1/0_Brenau_0_416_0_2_2

New Line.l(r:p1ulv3686-udt1762lv) Units=km Length=0.0218797 bus1=udt1762lv.1.2 bus2=p1ulv3686.1.2 switch=n enabled=y phases=2 Linecode=1P_UG_AL_1/0_Brenau_0_416_0_2_2

New Line.l(r:p1ulv3684-udm6944) Units=km Length=0.0210309 bus1=udm6944.1.2 bus2=p1ulv3684.1.2 switch=n enabled=y phases=2 Linecode=1P_UG_AL_1/0_Brenau_0_416_0_2_2

New Line.l(r:p1ulv3682-udm6943) Units=km Length=0.0203583 bus1=udm6943.1.2 bus2=p1ulv3682.1.2 switch=n enabled=y phases=2 Linecode=1P_UG_AL_1/0_Brenau_0_416_0_2_2

New Line.l(r:udm6943-udm6944) Units=km Length=0.00993924 bus1=udm6944.1.2 bus2=udm6943.1.2 switch=n enabled=y phases=2 Linecode=1P_UG_AL_1/0_Brenau_0_416_0_2_2

New Line.l(r:udm6944-udt1762lv) Units=km Length=0.00993924 bus1=udt1762lv.1.2 bus2=udm6944.1.2 switch=n enabled=y phases=2 Linecode=1P_UG_AL_4/0_Sweetbriar_0_416_0_2_2

New Line.l(r:p1ulv3688-udm6946) Units=km Length=0.0223755 bus1=udm6946.1.2 bus2=p1ulv3688.1.2 switch=n enabled=y phases=2 Linecode=1P_UG_AL_1/0_Brenau_0_416_0_2_2

New Line.l(r:p1ulv3689-udm6946) Units=km Length=0.0227348 bus1=udm6946.1.2 bus2=p1ulv3689.1.2 switch=n enabled=y phases=2 Linecode=1P_UG_AL_1/0_Brenau_0_416_0_2_2

New Line.l(r:udm6946-udt1762lv) Units=km Length=0.00993052 bus1=udt1762lv.1.2 bus2=udm6946.1.2 switch=n enabled=y phases=2 Linecode=1P_UG_AL_1/0_Brenau_0_416_0_2_2

New Line.l(r:p1ulv3692-udt1763lv) Units=km Length=0.0172024 bus1=udt1763lv.1.2 bus2=p1ulv3692.1.2 switch=n enabled=y phases=2 Linecode=1P_UG_AL_1/0_Brenau_0_416_0_2_2

New Line.l(r:p1ulv3693-udt1763lv) Units=km Length=0.017617400000000002 bus1=udt1763lv.1.2 bus2=p1ulv3693.1.2 switch=n enabled=y phases=2 Linecode=1P_UG_AL_1/0_Brenau_0_416_0_2_2

New Line.l(r:p1ulv3690-udm6948) Units=km Length=0.0168491 bus1=udm6948.1.2 bus2=p1ulv3690.1.2 switch=n enabled=y phases=2 Linecode=1P_UG_AL_1/0_Brenau_0_416_0_2_2

New Line.l(r:p1ulv3691-udm6948) Units=km Length=0.0170644 bus1=udm6948.1.2 bus2=p1ulv3691.1.2 switch=n enabled=y phases=2 Linecode=1P_UG_AL_1/0_Brenau_0_416_0_2_2

New Line.l(r:p1ulv8125-udm6956) Units=km Length=0.0158255 bus1=udm6956.1.2 bus2=p1ulv8125.1.2 switch=n enabled=y phases=2 Linecode=1P_UG_AL_1/0_Brenau_0_416_0_2_2

New Line.l(r:p1ulv8123-udm6955) Units=km Length=0.0161418 bus1=udm6955.1.2 bus2=p1ulv8123.1.2 switch=n enabled=y phases=2 Linecode=1P_UG_AL_1/0_Brenau_0_416_0_2_2

New Line.l(r:udm6955-udm6956) Units=km Length=0.00994413 bus1=udm6956.1.2 bus2=udm6955.1.2 switch=n enabled=y phases=2 Linecode=1P_UG_AL_1/0_Brenau_0_416_0_2_2

New Line.l(r:udm6948-udm6956) Units=km Length=0.00993052 bus1=udm6948.1.2 bus2=udm6956.1.2 switch=n enabled=y phases=2 Linecode=1P_UG_AL_1/0_Brenau_0_416_0_2_2

New Line.l(r:udm6948-udt1763lv) Units=km Length=0.00993924 bus1=udt1763lv.1.2 bus2=udm6948.1.2 switch=n enabled=y phases=2 Linecode=1P_UG_AL_4/0_Sweetbriar_0_416_0_2_2

New Line.l(r:p1ulv3694-udm6952) Units=km Length=0.0176476 bus1=udm6952.1.2 bus2=p1ulv3694.1.2 switch=n enabled=y phases=2 Linecode=1P_UG_AL_1/0_Brenau_0_416_0_2_2

New Line.l(r:p1ulv3695-udm6953) Units=km Length=0.0180849 bus1=udm6953.1.2 bus2=p1ulv3695.1.2 switch=n enabled=y phases=2 Linecode=1P_UG_AL_1/0_Brenau_0_416_0_2_2

New Line.l(r:p1ulv3697-udm6954) Units=km Length=0.0187352 bus1=udm6954.1.2 bus2=p1ulv3697.1.2 switch=n enabled=y phases=2 Linecode=1P_UG_AL_1/0_Brenau_0_416_0_2_2

New Line.l(r:udm6953-udm6954) Units=km Length=0.00993924 bus1=udm6953.1.2 bus2=udm6954.1.2 switch=n enabled=y phases=2 Linecode=1P_UG_AL_1/0_Brenau_0_416_0_2_2

New Line.l(r:udm6952-udm6953) Units=km Length=0.00993924 bus1=udm6952.1.2 bus2=udm6953.1.2 switch=n enabled=y phases=2 Linecode=1P_UG_AL_2/0_Converse_0_416_0_2_2

New Line.l(r:udm6952-udt1763lv) Units=km Length=0.00993542 bus1=udt1763lv.1.2 bus2=udm6952.1.2 switch=n enabled=y phases=2 Linecode=1P_UG_AL_4/0_Sweetbriar_0_416_0_2_2

New Line.l(r:p1ulv3700-udt1764lv) Units=km Length=0.0167271 bus1=udt1764lv.1.2 bus2=p1ulv3700.1.2 switch=n enabled=y phases=2 Linecode=1P_UG_AL_1/0_Brenau_0_416_0_2_2

New Line.l(r:p1ulv3701-udt1764lv) Units=km Length=0.0154512 bus1=udt1764lv.1.2 bus2=p1ulv3701.1.2 switch=n enabled=y phases=2 Linecode=1P_UG_AL_1/0_Brenau_0_416_0_2_2

New Line.l(r:p1ulv3699-udm6958) Units=km Length=0.017235 bus1=udm6958.1.2 bus2=p1ulv3699.1.2 switch=n enabled=y phases=2 Linecode=1P_UG_AL_1/0_Brenau_0_416_0_2_2

New Line.l(r:p1ulv3698-udm6957) Units=km Length=0.0181438 bus1=udm6957.1.2 bus2=p1ulv3698.1.2 switch=n enabled=y phases=2 Linecode=1P_UG_AL_1/0_Brenau_0_416_0_2_2

New Line.l(r:udm6957-udm6958) Units=km Length=0.00817892 bus1=udm6958.1.2 bus2=udm6957.1.2 switch=n enabled=y phases=2 Linecode=1P_UG_AL_1/0_Brenau_0_416_0_2_2

New Line.l(r:udm6958-udt1764lv) Units=km Length=0.00817892 bus1=udt1764lv.1.2 bus2=udm6958.1.2 switch=n enabled=y phases=2 Linecode=1P_UG_AL_1/0_Brenau_0_416_0_2_2

New Line.l(r:p1ulv3702-udm6961) Units=km Length=0.0143605 bus1=udm6961.1.2 bus2=p1ulv3702.1.2 switch=n enabled=y phases=2 Linecode=1P_UG_AL_1/0_Brenau_0_416_0_2_2

New Line.l(r:p1ulv54379-udm6962) Units=km Length=0.016431500000000005 bus1=udm6962.1.2 bus2=p1ulv54379.1.2 switch=n enabled=y phases=2 Linecode=1P_UG_AL_4/0_Sweetbriar_0_416_0_2_2

New Line.l(r:udm6961-udm6962) Units=km Length=0.00849379 bus1=udm6961.1.2 bus2=udm6962.1.2 switch=n enabled=y phases=2 Linecode=1P_UG_AL_4/0_Sweetbriar_0_416_0_2_2

New Line.l(r:udm6961-udt1764lv) Units=km Length=0.00817892 bus1=udt1764lv.1.2 bus2=udm6961.1.2 switch=n enabled=y phases=2 Linecode=1P_UG_AL_4/0_Sweetbriar_0_416_0_2_2

New Line.l(r:p1ulv3732-udt1769lv) Units=km Length=0.0456506 bus1=udt1769lv.1.2 bus2=p1ulv3732.1.2 switch=n enabled=y phases=2 Linecode=1P_OH_AL_4/0_Zuzara_0_416_0_2_2

New Line.l(r:p1ulv41780-udm6992) Units=km Length=0.0394245 bus1=udm6992.1.2 bus2=p1ulv41780.1.2 switch=n enabled=y phases=2 Linecode=1P_OH_AL_4/0_Zuzara_0_416_0_2_2

New Line.l(r:udm6992-udt1769lv) Units=km Length=0.017846600000000004 bus1=udt1769lv.1.2 bus2=udm6992.1.2 switch=n enabled=y phases=2 Linecode=1P_OH_AL_2/0_Rucina_0_416_0_2_2

New Line.l(r:p1ulv48620-udm8971) Units=km Length=0.0288105 bus1=udm8971.1.2 bus2=p1ulv48620.1.2 switch=n enabled=y phases=2 Linecode=1P_UG_AL_1/0_Brenau_0_416_0_2_2

New Line.l(r:p1ulv52366-udm8971) Units=km Length=0.0734973 bus1=udm8971.1.2 bus2=p1ulv52366.1.2 switch=n enabled=y phases=2 Linecode=1P_UG_AL_1/0_Brenau_0_416_0_2_2

New Line.l(r:p1ulv58302-udm8974) Units=km Length=0.025614600000000005 bus1=udm8974.1.2 bus2=p1ulv58302.1.2 switch=n enabled=y phases=2 Linecode=1P_UG_AL_1/0_Brenau_0_416_0_2_2

New Line.l(r:p1ulv4902-udm8969) Units=km Length=0.0413776 bus1=udm8969.1.2 bus2=p1ulv4902.1.2 switch=n enabled=y phases=2 Linecode=1P_UG_AL_1/0_Brenau_0_416_0_2_2

New Line.l(r:udm8969-udm8974) Units=km Length=0.009843220000000001 bus1=udm8974.1.2 bus2=udm8969.1.2 switch=n enabled=y phases=2 Linecode=1P_UG_AL_1/0_Brenau_0_416_0_2_2

New Line.l(r:udm8971-udm8974) Units=km Length=0.009843220000000001 bus1=udm8971.1.2 bus2=udm8974.1.2 switch=n enabled=y phases=2 Linecode=1P_UG_AL_1/0_Brenau_0_416_0_2_2

New Line.l(r:udm8971-udt2243lv) Units=km Length=0.00983323 bus1=udt2243lv.1.2 bus2=udm8971.1.2 switch=n enabled=y phases=2 Linecode=1P_UG_AL_4/0_Sweetbriar_0_416_0_2_2

New Line.l(r:p1ulv50157-udm8972) Units=km Length=0.0194273 bus1=udm8972.1.2 bus2=p1ulv50157.1.2 switch=n enabled=y phases=2 Linecode=1P_UG_AL_1/0_Brenau_0_416_0_2_2

New Line.l(r:p1ulv40044-udm8970) Units=km Length=0.0203384 bus1=udm8970.1.2 bus2=p1ulv40044.1.2 switch=n enabled=y phases=2 Linecode=1P_UG_AL_1/0_Brenau_0_416_0_2_2

New Line.l(r:udm8970-udm8972) Units=km Length=0.0196864 bus1=udm8972.1.2 bus2=udm8970.1.2 switch=n enabled=y phases=2 Linecode=1P_UG_AL_1/0_Brenau_0_416_0_2_2

New Line.l(r:udm8972-udt2243lv) Units=km Length=0.0295197 bus1=udt2243lv.1.2 bus2=udm8972.1.2 switch=n enabled=y phases=2 Linecode=1P_UG_AL_1/0_Brenau_0_416_0_2_2

New Line.l(r:p1ulv6574-udt3004lv) Units=km Length=0.0200628 bus1=udt3004lv.1.2 bus2=p1ulv6574.1.2 switch=n enabled=y phases=2 Linecode=1P_OH_AL_2/0_Rucina_0_416_0_2_2

New Line.l(r:p1ulv57501-udt3004lv) Units=km Length=0.019851 bus1=udt3004lv.1.2 bus2=p1ulv57501.1.2 switch=n enabled=y phases=2 Linecode=1P_OH_AL_2/0_Rucina_0_416_0_2_2

New Line.l(r:p1ulv56178-udm11947) Units=km Length=0.0146636 bus1=udm11947.1.2 bus2=p1ulv56178.1.2 switch=n enabled=y phases=2 Linecode=1P_OH_AL_2/0_Rucina_0_416_0_2_2

New Line.l(r:udm11947-udt3004lv) Units=km Length=0.0686567 bus1=udt3004lv.1.2 bus2=udm11947.1.2 switch=n enabled=y phases=2 Linecode=1P_OH_AL_4/0_Zuzara_0_416_0_2_2

New Line.l(r:p1ulv6585-udt3011lv) Units=km Length=0.0315551 bus1=udt3011lv.1.2 bus2=p1ulv6585.1.2 switch=n enabled=y phases=2 Linecode=1P_OH_AL_4/0_Zuzara_0_416_0_2_2

New Line.l(r:p1ulv6591-udt3011lv) Units=km Length=0.0293874 bus1=udt3011lv.1.2 bus2=p1ulv6591.1.2 switch=n enabled=y phases=2 Linecode=1P_OH_AL_4/0_Zuzara_0_416_0_2_2

New Line.l(r:p1ulv41373-udt3011lv) Units=km Length=0.0333577 bus1=udt3011lv.1.2 bus2=p1ulv41373.1.2 switch=n enabled=y phases=2 Linecode=1P_OH_AL_4/0_Zuzara_0_416_0_2_2

New Line.l(r:p1ulv48514-udt3011lv) Units=km Length=0.0312022 bus1=udt3011lv.1.2 bus2=p1ulv48514.1.2 switch=n enabled=y phases=2 Linecode=1P_OH_AL_4/0_Zuzara_0_416_0_2_2

New Line.l(r:p1ulv54104-udm11975) Units=km Length=0.0235 bus1=udm11975.1.2 bus2=p1ulv54104.1.2 switch=n enabled=y phases=2 Linecode=1P_OH_AL_2/0_Rucina_0_416_0_2_2

New Line.l(r:udm11975-udt3011lv) Units=km Length=0.0161124 bus1=udt3011lv.1.2 bus2=udm11975.1.2 switch=n enabled=y phases=2 Linecode=1P_OH_AL_2/0_Rucina_0_416_0_2_2

New Line.l(r:p1ulv6596-udt3019lv) Units=km Length=0.0191726 bus1=udt3019lv.1.2 bus2=p1ulv6596.1.2 switch=n enabled=y phases=2 Linecode=1P_OH_AL_2/0_Rucina_0_416_0_2_2

New Line.l(r:p1ulv12876-udt3019lv) Units=km Length=0.0203006 bus1=udt3019lv.1.2 bus2=p1ulv12876.1.2 switch=n enabled=y phases=2 Linecode=1P_OH_AL_2/0_Rucina_0_416_0_2_2

New Line.l(r:p1ulv51709-udm11995) Units=km Length=0.0204212 bus1=udm11995.1.2 bus2=p1ulv51709.1.2 switch=n enabled=y phases=2 Linecode=1P_OH_AL_2/0_Rucina_0_416_0_2_2

New Line.l(r:udm11995-udt3019lv) Units=km Length=0.0191165 bus1=udt3019lv.1.2 bus2=udm11995.1.2 switch=n enabled=y phases=2 Linecode=1P_OH_AL_2/0_Rucina_0_416_0_2_2

New Line.l(r:p1ulv8085-udt3723lv) Units=km Length=0.0106951 bus1=udt3723lv.1.2 bus2=p1ulv8085.1.2 switch=n enabled=y phases=2 Linecode=1P_UG_AL_1/0_Brenau_0_416_0_2_2

New Line.l(r:p1ulv46519-udt3723lv) Units=km Length=0.0084001 bus1=udt3723lv.1.2 bus2=p1ulv46519.1.2 switch=n enabled=y phases=2 Linecode=1P_UG_AL_1/0_Brenau_0_416_0_2_2

New Line.l(r:p1ulv53693-udt3723lv) Units=km Length=0.0174792 bus1=udt3723lv.1.2 bus2=p1ulv53693.1.2 switch=n enabled=y phases=2 Linecode=1P_UG_AL_1/0_Brenau_0_416_0_2_2

New Line.l(r:p1ulv8087-udm14437) Units=km Length=0.010618300000000002 bus1=udm14437.1.2 bus2=p1ulv8087.1.2 switch=n enabled=y phases=2 Linecode=1P_UG_AL_1/0_Brenau_0_416_0_2_2

New Line.l(r:p1ulv8088-udm14438) Units=km Length=0.0102526 bus1=udm14438.1.2 bus2=p1ulv8088.1.2 switch=n enabled=y phases=2 Linecode=1P_UG_AL_1/0_Brenau_0_416_0_2_2

New Line.l(r:udm14437-udm14438) Units=km Length=0.00923262 bus1=udm14437.1.2 bus2=udm14438.1.2 switch=n enabled=y phases=2 Linecode=1P_UG_AL_1/0_Brenau_0_416_0_2_2

New Line.l(r:udm14437-udt3723lv) Units=km Length=0.00922287 bus1=udt3723lv.1.2 bus2=udm14437.1.2 switch=n enabled=y phases=2 Linecode=1P_UG_AL_1/0_Brenau_0_416_0_2_2

New Line.l(r:p1ulv53399-udm14440) Units=km Length=0.0354101 bus1=udm14440.1.2 bus2=p1ulv53399.1.2 switch=n enabled=y phases=2 Linecode=1P_UG_AL_1/0_Brenau_0_416_0_2_2

New Line.l(r:udm14440-udt3723lv) Units=km Length=0.00923262 bus1=udt3723lv.1.2 bus2=udm14440.1.2 switch=n enabled=y phases=2 Linecode=1P_UG_AL_1/0_Brenau_0_416_0_2_2

New Line.l(r:p1ulv8094-udt3724lv) Units=km Length=0.0170684 bus1=udt3724lv.1.2 bus2=p1ulv8094.1.2 switch=n enabled=y phases=2 Linecode=1P_UG_AL_1/0_Brenau_0_416_0_2_2

New Line.l(r:p1ulv8110-udt3724lv) Units=km Length=0.0181444 bus1=udt3724lv.1.2 bus2=p1ulv8110.1.2 switch=n enabled=y phases=2 Linecode=1P_UG_AL_1/0_Brenau_0_416_0_2_2

New Line.l(r:p1ulv8092-udm14443) Units=km Length=0.0170872 bus1=udm14443.1.2 bus2=p1ulv8092.1.2 switch=n enabled=y phases=2 Linecode=1P_UG_AL_1/0_Brenau_0_416_0_2_2

New Line.l(r:p1ulv8108-udm14443) Units=km Length=0.0181245 bus1=udm14443.1.2 bus2=p1ulv8108.1.2 switch=n enabled=y phases=2 Linecode=1P_UG_AL_1/0_Brenau_0_416_0_2_2

New Line.l(r:p1ulv8090-udm14442) Units=km Length=0.0172182 bus1=udm14442.1.2 bus2=p1ulv8090.1.2 switch=n enabled=y phases=2 Linecode=1P_UG_AL_1/0_Brenau_0_416_0_2_2

New Line.l(r:p1ulv8099-udm14447) Units=km Length=0.0171493 bus1=udm14447.1.2 bus2=p1ulv8099.1.2 switch=n enabled=y phases=2 Linecode=1P_UG_AL_1/0_Brenau_0_416_0_2_2

New Line.l(r:udm14442-udm14447) Units=km Length=0.008810600000000002 bus1=udm14442.1.2 bus2=udm14447.1.2 switch=n enabled=y phases=2 Linecode=1P_UG_AL_1/0_Brenau_0_416_0_2_2

New Line.l(r:udm14442-udm14443) Units=km Length=0.00879645 bus1=udm14443.1.2 bus2=udm14442.1.2 switch=n enabled=y phases=2 Linecode=1P_UG_AL_1/0_Brenau_0_416_0_2_2

New Line.l(r:udm14443-udt3724lv) Units=km Length=0.008810600000000002 bus1=udt3724lv.1.2 bus2=udm14443.1.2 switch=n enabled=y phases=2 Linecode=1P_UG_AL_4/0_Sweetbriar_0_416_0_2_2

New Line.l(r:p1ulv8096-udm14445) Units=km Length=0.0170285 bus1=udm14445.1.2 bus2=p1ulv8096.1.2 switch=n enabled=y phases=2 Linecode=1P_UG_AL_1/0_Brenau_0_416_0_2_2

New Line.l(r:p1ulv8112-udm14445) Units=km Length=0.0181812 bus1=udm14445.1.2 bus2=p1ulv8112.1.2 switch=n enabled=y phases=2 Linecode=1P_UG_AL_1/0_Brenau_0_416_0_2_2

New Line.l(r:p1ulv8098-udm14446) Units=km Length=0.0170005 bus1=udm14446.1.2 bus2=p1ulv8098.1.2 switch=n enabled=y phases=2 Linecode=1P_UG_AL_1/0_Brenau_0_416_0_2_2

New Line.l(r:p1ulv8114-udm14446) Units=km Length=0.0182149 bus1=udm14446.1.2 bus2=p1ulv8114.1.2 switch=n enabled=y phases=2 Linecode=1P_UG_AL_1/0_Brenau_0_416_0_2_2

New Line.l(r:p1ulv8116-udm14452) Units=km Length=0.0182508 bus1=udm14452.1.2 bus2=p1ulv8116.1.2 switch=n enabled=y phases=2 Linecode=1P_UG_AL_1/0_Brenau_0_416_0_2_2

New Line.l(r:udm14446-udm14452) Units=km Length=0.008810600000000002 bus1=udm14446.1.2 bus2=udm14452.1.2 switch=n enabled=y phases=2 Linecode=1P_UG_AL_1/0_Brenau_0_416_0_2_2

New Line.l(r:udm14445-udm14446) Units=km Length=0.00879645 bus1=udm14445.1.2 bus2=udm14446.1.2 switch=n enabled=y phases=2 Linecode=1P_UG_AL_1/0_Brenau_0_416_0_2_2
