New Line.l(r:p1ulv37-udt29lv) Units=km Length=0.0159289 bus1=udt29lv.1.2 bus2=p1ulv37.1.2 switch=n enabled=y phases=2 Linecode=1P_UG_AL_1/0_Brenau_0_416_0_2_2

New Line.l(r:p1ulv1592-udm106) Units=km Length=0.0158863 bus1=udm106.1.2 bus2=p1ulv1592.1.2 switch=n enabled=y phases=2 Linecode=1P_UG_AL_1/0_Brenau_0_416_0_2_2

New Line.l(r:udm106-udt29lv) Units=km Length=0.00981599 bus1=udt29lv.1.2 bus2=udm106.1.2 switch=n enabled=y phases=2 Linecode=1P_UG_AL_1/0_Brenau_0_416_0_2_2

New Line.l(r:p1ulv38-udm107) Units=km Length=0.0116324 bus1=udm107.1.2 bus2=p1ulv38.1.2 switch=n enabled=y phases=2 Linecode=1P_UG_AL_1/0_Brenau_0_416_0_2_2

New Line.l(r:udm107-udt30lv) Units=km Length=0.00964297 bus1=udt30lv.1.2 bus2=udm107.1.2 switch=n enabled=y phases=2 Linecode=1P_UG_AL_1/0_Brenau_0_416_0_2_2

New Line.l(r:p1ulv36565-udm108) Units=km Length=0.0147143 bus1=udm108.1.2 bus2=p1ulv36565.1.2 switch=n enabled=y phases=2 Linecode=1P_UG_AL_1/0_Brenau_0_416_0_2_2

New Line.l(r:udm108-udt30lv) Units=km Length=0.00965296 bus1=udt30lv.1.2 bus2=udm108.1.2 switch=n enabled=y phases=2 Linecode=1P_UG_AL_1/0_Brenau_0_416_0_2_2

New Line.l(r:p1ulv146-udt114lv) Units=km Length=0.018144000000000004 bus1=udt114lv.1.2 bus2=p1ulv146.1.2 switch=n enabled=y phases=2 Linecode=1P_OH_AL_2/0_Rucina_0_416_0_2_2

New Line.l(r:p1ulv36085-udm400) Units=km Length=0.0182712 bus1=udm400.1.2 bus2=p1ulv36085.1.2 switch=n enabled=y phases=2 Linecode=1P_OH_AL_2/0_Rucina_0_416_0_2_2

New Line.l(r:udm400-udt114lv) Units=km Length=0.0199138 bus1=udt114lv.1.2 bus2=udm400.1.2 switch=n enabled=y phases=2 Linecode=1P_OH_AL_2/0_Rucina_0_416_0_2_2

New Line.l(r:p1ulv42463-udm401) Units=km Length=0.0175261 bus1=udm401.1.2 bus2=p1ulv42463.1.2 switch=n enabled=y phases=2 Linecode=1P_OH_AL_2/0_Rucina_0_416_0_2_2

New Line.l(r:udm401-udt114lv) Units=km Length=0.019923800000000002 bus1=udt114lv.1.2 bus2=udm401.1.2 switch=n enabled=y phases=2 Linecode=1P_OH_AL_2/0_Rucina_0_416_0_2_2

New Line.l(r:p1ulv26870-udm420) Units=km Length=0.025973600000000003 bus1=udm420.1.2 bus2=p1ulv26870.1.2 switch=n enabled=y phases=2 Linecode=1P_UG_AL_1/0_Brenau_0_416_0_2_2

New Line.l(r:udm420-udt117lv) Units=km Length=0.0176347 bus1=udt117lv.1.2 bus2=udm420.1.2 switch=n enabled=y phases=2 Linecode=1P_UG_AL_1/0_Brenau_0_416_0_2_2

New Line.l(r:p1ulv33746-udm421) Units=km Length=0.0105614 bus1=udm421.1.2 bus2=p1ulv33746.1.2 switch=n enabled=y phases=2 Linecode=1P_UG_AL_1/0_Brenau_0_416_0_2_2

New Line.l(r:p1ulv149-udm419) Units=km Length=0.014978 bus1=udm419.1.2 bus2=p1ulv149.1.2 switch=n enabled=y phases=2 Linecode=1P_UG_AL_1/0_Brenau_0_416_0_2_2

New Line.l(r:udm419-udm421) Units=km Length=0.0693654 bus1=udm421.1.2 bus2=udm419.1.2 switch=n enabled=y phases=2 Linecode=1P_UG_AL_1/0_Brenau_0_416_0_2_2

New Line.l(r:udm421-udt117lv) Units=km Length=0.00881735 bus1=udt117lv.1.2 bus2=udm421.1.2 switch=n enabled=y phases=2 Linecode=1P_UG_AL_1/0_Brenau_0_416_0_2_2

New Line.l(r:p1ulv150-udt118lv) Units=km Length=0.013199400000000002 bus1=udt118lv.1.2 bus2=p1ulv150.1.2 switch=n enabled=y phases=2 Linecode=1P_OH_AL_2/0_Rucina_0_416_0_2_2

New Line.l(r:p1ulv32334-udt118lv) Units=km Length=0.0221678 bus1=udt118lv.1.2 bus2=p1ulv32334.1.2 switch=n enabled=y phases=2 Linecode=1P_OH_AL_2/0_Rucina_0_416_0_2_2

New Line.l(r:p1ulv34586-udt118lv) Units=km Length=0.0159508 bus1=udt118lv.1.2 bus2=p1ulv34586.1.2 switch=n enabled=y phases=2 Linecode=1P_OH_AL_2/0_Rucina_0_416_0_2_2

New Line.l(r:p1ulv26271-udm423) Units=km Length=0.0136244 bus1=udm423.1.2 bus2=p1ulv26271.1.2 switch=n enabled=y phases=2 Linecode=1P_OH_AL_2/0_Rucina_0_416_0_2_2

New Line.l(r:p1ulv35544-udm423) Units=km Length=0.0221864 bus1=udm423.1.2 bus2=p1ulv35544.1.2 switch=n enabled=y phases=2 Linecode=1P_OH_AL_2/0_Rucina_0_416_0_2_2

New Line.l(r:p1ulv33156-udm425) Units=km Length=0.0140707 bus1=udm425.1.2 bus2=p1ulv33156.1.2 switch=n enabled=y phases=2 Linecode=1P_OH_AL_2/0_Rucina_0_416_0_2_2

New Line.l(r:udm423-udm425) Units=km Length=0.0194595 bus1=udm423.1.2 bus2=udm425.1.2 switch=n enabled=y phases=2 Linecode=1P_OH_AL_2/0_Rucina_0_416_0_2_2

New Line.l(r:udm423-udt118lv) Units=km Length=0.0194589 bus1=udt118lv.1.2 bus2=udm423.1.2 switch=n enabled=y phases=2 Linecode=1P_OH_AL_2/0_Rucina_0_416_0_2_2

New Line.l(r:p1ulv37914-udm428) Units=km Length=0.0171411 bus1=udm428.1.2 bus2=p1ulv37914.1.2 switch=n enabled=y phases=2 Linecode=1P_OH_AL_2/0_Rucina_0_416_0_2_2

New Line.l(r:p1ulv45565-udm428) Units=km Length=0.0204595 bus1=udm428.1.2 bus2=p1ulv45565.1.2 switch=n enabled=y phases=2 Linecode=1P_OH_AL_2/0_Rucina_0_416_0_2_2

New Line.l(r:p1ulv42350-udm430) Units=km Length=0.0201348 bus1=udm430.1.2 bus2=p1ulv42350.1.2 switch=n enabled=y phases=2 Linecode=1P_OH_AL_2/0_Rucina_0_416_0_2_2

New Line.l(r:p1ulv38291-udm429) Units=km Length=0.0147665 bus1=udm429.1.2 bus2=p1ulv38291.1.2 switch=n enabled=y phases=2 Linecode=1P_OH_AL_2/0_Rucina_0_416_0_2_2

New Line.l(r:udm429-udm430) Units=km Length=0.0194689 bus1=udm430.1.2 bus2=udm429.1.2 switch=n enabled=y phases=2 Linecode=1P_OH_AL_2/0_Rucina_0_416_0_2_2

New Line.l(r:udm428-udm430) Units=km Length=0.0194589 bus1=udm428.1.2 bus2=udm430.1.2 switch=n enabled=y phases=2 Linecode=1P_OH_AL_2/0_Rucina_0_416_0_2_2

New Line.l(r:udm428-udt118lv) Units=km Length=0.0194595 bus1=udt118lv.1.2 bus2=udm428.1.2 switch=n enabled=y phases=2 Linecode=1P_OH_AL_2/0_Rucina_0_416_0_2_2

New Line.l(r:p1ulv151-udt119lv) Units=km Length=0.016221200000000005 bus1=udt119lv.1.2 bus2=p1ulv151.1.2 switch=n enabled=y phases=2 Linecode=1P_OH_AL_2/0_Rucina_0_416_0_2_2

New Line.l(r:p1ulv36764-udt119lv) Units=km Length=0.0106224 bus1=udt119lv.1.2 bus2=p1ulv36764.1.2 switch=n enabled=y phases=2 Linecode=1P_OH_AL_2/0_Rucina_0_416_0_2_2

New Line.l(r:p1ulv26708-udm433) Units=km Length=0.00932696 bus1=udm433.1.2 bus2=p1ulv26708.1.2 switch=n enabled=y phases=2 Linecode=1P_OH_AL_2/0_Rucina_0_416_0_2_2

New Line.l(r:udm433-udt119lv) Units=km Length=0.0192379 bus1=udt119lv.1.2 bus2=udm433.1.2 switch=n enabled=y phases=2 Linecode=1P_OH_AL_2/0_Rucina_0_416_0_2_2

New Line.l(r:p1ulv37986-udm436) Units=km Length=0.0138827 bus1=udm436.1.2 bus2=p1ulv37986.1.2 switch=n enabled=y phases=2 Linecode=1P_OH_AL_2/0_Rucina_0_416_0_2_2

New Line.l(r:p1ulv152-udm435) Units=km Length=0.0144727 bus1=udm435.1.2 bus2=p1ulv152.1.2 switch=n enabled=y phases=2 Linecode=1P_OH_AL_2/0_Rucina_0_416_0_2_2

New Line.l(r:udm435-udm436) Units=km Length=0.0396943 bus1=udm436.1.2 bus2=udm435.1.2 switch=n enabled=y phases=2 Linecode=1P_OH_AL_4/0_Zuzara_0_416_0_2_2

New Line.l(r:udm436-udt120lv) Units=km Length=0.0351662 bus1=udt120lv.1.2 bus2=udm436.1.2 switch=n enabled=y phases=2 Linecode=1P_OH_AL_4/0_Zuzara_0_416_0_2_2

New Line.l(r:p1ulv155-udm444) Units=km Length=0.0119156 bus1=udm444.1.2 bus2=p1ulv155.1.2 switch=n enabled=y phases=2 Linecode=1P_UG_AL_1/0_Brenau_0_416_0_2_2

New Line.l(r:p1ulv10103-udm444) Units=km Length=0.0117836 bus1=udm444.1.2 bus2=p1ulv10103.1.2 switch=n enabled=y phases=2 Linecode=1P_UG_AL_1/0_Brenau_0_416_0_2_2

New Line.l(r:udm444-udt123lv) Units=km Length=0.0385285 bus1=udt123lv.1.2 bus2=udm444.1.2 switch=n enabled=y phases=2 Linecode=1P_UG_AL_1/0_Brenau_0_416_0_2_2

New Line.l(r:p1ulv156-udm445) Units=km Length=0.0173871 bus1=udm445.1.2 bus2=p1ulv156.1.2 switch=n enabled=y phases=2 Linecode=1P_UG_AL_1/0_Brenau_0_416_0_2_2

New Line.l(r:p1ulv33508-udm445) Units=km Length=0.0159309 bus1=udm445.1.2 bus2=p1ulv33508.1.2 switch=n enabled=y phases=2 Linecode=1P_UG_AL_1/0_Brenau_0_416_0_2_2

New Line.l(r:p1ulv42697-udm449) Units=km Length=0.0176863 bus1=udm449.1.2 bus2=p1ulv42697.1.2 switch=n enabled=y phases=2 Linecode=1P_UG_AL_1/0_Brenau_0_416_0_2_2

New Line.l(r:p1ulv47729-udm450) Units=km Length=0.0140572 bus1=udm450.1.2 bus2=p1ulv47729.1.2 switch=n enabled=y phases=2 Linecode=1P_UG_AL_1/0_Brenau_0_416_0_2_2

New Line.l(r:udm449-udm450) Units=km Length=0.00962275 bus1=udm449.1.2 bus2=udm450.1.2 switch=n enabled=y phases=2 Linecode=1P_UG_AL_1/0_Brenau_0_416_0_2_2

New Line.l(r:udm445-udm449) Units=km Length=0.009632750000000002 bus1=udm445.1.2 bus2=udm449.1.2 switch=n enabled=y phases=2 Linecode=1P_UG_AL_2/0_Converse_0_416_0_2_2

New Line.l(r:udm445-udt123lv) Units=km Length=0.0192557 bus1=udt123lv.1.2 bus2=udm445.1.2 switch=n enabled=y phases=2 Linecode=1P_UG_AL_4/0_Sweetbriar_0_416_0_2_2

New Line.l(r:p1ulv28105-udm447) Units=km Length=0.015473600000000002 bus1=udm447.1.2 bus2=p1ulv28105.1.2 switch=n enabled=y phases=2 Linecode=1P_UG_AL_1/0_Brenau_0_416_0_2_2

New Line.l(r:udm447-udt123lv) Units=km Length=0.04793680000000001 bus1=udt123lv.1.2 bus2=udm447.1.2 switch=n enabled=y phases=2 Linecode=1P_UG_AL_1/0_Brenau_0_416_0_2_2

New Line.l(r:p1ulv33517-udt807lv) Units=km Length=0.017295300000000003 bus1=udt807lv.1.2 bus2=p1ulv33517.1.2 switch=n enabled=y phases=2 Linecode=1P_UG_AL_1/0_Brenau_0_416_0_2_2

New Line.l(r:p1ulv34740-udm3353) Units=km Length=0.0168557 bus1=udm3353.1.2 bus2=p1ulv34740.1.2 switch=n enabled=y phases=2 Linecode=1P_UG_AL_1/0_Brenau_0_416_0_2_2

New Line.l(r:p1ulv1601-udm3349) Units=km Length=0.0173738 bus1=udm3349.1.2 bus2=p1ulv1601.1.2 switch=n enabled=y phases=2 Linecode=1P_UG_AL_1/0_Brenau_0_416_0_2_2

New Line.l(r:p1ulv36661-udm3354) Units=km Length=0.0178548 bus1=udm3354.1.2 bus2=p1ulv36661.1.2 switch=n enabled=y phases=2 Linecode=1P_UG_AL_1/0_Brenau_0_416_0_2_2

New Line.l(r:udm3349-udm3354) Units=km Length=0.0884839 bus1=udm3349.1.2 bus2=udm3354.1.2 switch=n enabled=y phases=2 Linecode=1P_UG_AL_1/0_Brenau_0_416_0_2_2

New Line.l(r:udm3349-udm3353) Units=km Length=0.00981542 bus1=udm3353.1.2 bus2=udm3349.1.2 switch=n enabled=y phases=2 Linecode=1P_UG_AL_2/0_Converse_0_416_0_2_2

New Line.l(r:udm3353-udt807lv) Units=km Length=0.00981599 bus1=udt807lv.1.2 bus2=udm3353.1.2 switch=n enabled=y phases=2 Linecode=1P_UG_AL_4/0_Sweetbriar_0_416_0_2_2

New Line.l(r:p1ulv47398-udm3355) Units=km Length=0.0154778 bus1=udm3355.1.2 bus2=p1ulv47398.1.2 switch=n enabled=y phases=2 Linecode=1P_UG_AL_1/0_Brenau_0_416_0_2_2

New Line.l(r:p1ulv26279-udm3350) Units=km Length=0.0227392 bus1=udm3350.1.2 bus2=p1ulv26279.1.2 switch=n enabled=y phases=2 Linecode=1P_UG_AL_1/0_Brenau_0_416_0_2_2

New Line.l(r:p1ulv32763-udm3350) Units=km Length=0.0154941 bus1=udm3350.1.2 bus2=p1ulv32763.1.2 switch=n enabled=y phases=2 Linecode=1P_UG_AL_1/0_Brenau_0_416_0_2_2

New Line.l(r:p1ulv50458-udm3356) Units=km Length=0.0157559 bus1=udm3356.1.2 bus2=p1ulv50458.1.2 switch=n enabled=y phases=2 Linecode=1P_UG_AL_1/0_Brenau_0_416_0_2_2

New Line.l(r:udm3350-udm3356) Units=km Length=0.00981599 bus1=udm3350.1.2 bus2=udm3356.1.2 switch=n enabled=y phases=2 Linecode=1P_UG_AL_1/0_Brenau_0_416_0_2_2

New Line.l(r:udm3350-udm3355) Units=km Length=0.0196314 bus1=udm3355.1.2 bus2=udm3350.1.2 switch=n enabled=y phases=2 Linecode=1P_UG_AL_4/0_Sweetbriar_0_416_0_2_2

New Line.l(r:udm3355-udt807lv) Units=km Length=0.00981542 bus1=udt807lv.1.2 bus2=udm3355.1.2 switch=n enabled=y phases=2 Linecode=1P_UG_AL_4/0_Sweetbriar_0_416_0_2_2

New Line.l(r:p1ulv28308-udt809lv) Units=km Length=0.0105676 bus1=udt809lv.1.2 bus2=p1ulv28308.1.2 switch=n enabled=y phases=2 Linecode=1P_UG_AL_1/0_Brenau_0_416_0_2_2

New Line.l(r:p1ulv30528-udt809lv) Units=km Length=0.0112521 bus1=udt809lv.1.2 bus2=p1ulv30528.1.2 switch=n enabled=y phases=2 Linecode=1P_UG_AL_1/0_Brenau_0_416_0_2_2

New Line.l(r:p1ulv1603-udm3363) Units=km Length=0.0209924 bus1=udm3363.1.2 bus2=p1ulv1603.1.2 switch=n enabled=y phases=2 Linecode=1P_UG_AL_1/0_Brenau_0_416_0_2_2

New Line.l(r:p1ulv32304-udm3366) Units=km Length=0.013933000000000001 bus1=udm3366.1.2 bus2=p1ulv32304.1.2 switch=n enabled=y phases=2 Linecode=1P_UG_AL_1/0_Brenau_0_416_0_2_2

New Line.l(r:udm3363-udm3366) Units=km Length=0.00981599 bus1=udm3363.1.2 bus2=udm3366.1.2 switch=n enabled=y phases=2 Linecode=1P_UG_AL_1/0_Brenau_0_416_0_2_2

New Line.l(r:udm3363-udt809lv) Units=km Length=0.057545200000000005 bus1=udt809lv.1.2 bus2=udm3363.1.2 switch=n enabled=y phases=2 Linecode=1P_UG_AL_1/0_Brenau_0_416_0_2_2

New Line.l(r:p1ulv33387-udm3367) Units=km Length=0.0139376 bus1=udm3367.1.2 bus2=p1ulv33387.1.2 switch=n enabled=y phases=2 Linecode=1P_UG_AL_1/0_Brenau_0_416_0_2_2

New Line.l(r:udm3367-udt809lv) Units=km Length=0.0473976 bus1=udt809lv.1.2 bus2=udm3367.1.2 switch=n enabled=y phases=2 Linecode=1P_UG_AL_1/0_Brenau_0_416_0_2_2

New Line.l(r:p1ulv30311-udm3369) Units=km Length=0.0168402 bus1=udm3369.1.2 bus2=p1ulv30311.1.2 switch=n enabled=y phases=2 Linecode=1P_UG_AL_1/0_Brenau_0_416_0_2_2

New Line.l(r:p1ulv1604-udm3368) Units=km Length=0.0200315 bus1=udm3368.1.2 bus2=p1ulv1604.1.2 switch=n enabled=y phases=2 Linecode=1P_UG_AL_1/0_Brenau_0_416_0_2_2

New Line.l(r:p1ulv44297-udm3372) Units=km Length=0.00729243 bus1=udm3372.1.2 bus2=p1ulv44297.1.2 switch=n enabled=y phases=2 Linecode=1P_UG_AL_1/0_Brenau_0_416_0_2_2

New Line.l(r:udm3368-udm3372) Units=km Length=0.00965928 bus1=udm3368.1.2 bus2=udm3372.1.2 switch=n enabled=y phases=2 Linecode=1P_UG_AL_1/0_Brenau_0_416_0_2_2

New Line.l(r:udm3368-udm3369) Units=km Length=0.0312044 bus1=udm3369.1.2 bus2=udm3368.1.2 switch=n enabled=y phases=2 Linecode=1P_UG_AL_1/0_Brenau_0_416_0_2_2

New Line.l(r:udm3369-udt810lv) Units=km Length=0.00940972 bus1=udt810lv.1.2 bus2=udm3369.1.2 switch=n enabled=y phases=2 Linecode=1P_UG_AL_4/0_Sweetbriar_0_416_0_2_2

New Line.l(r:p1ulv32077-udm3370) Units=km Length=0.0179967 bus1=udm3370.1.2 bus2=p1ulv32077.1.2 switch=n enabled=y phases=2 Linecode=1P_UG_AL_1/0_Brenau_0_416_0_2_2

New Line.l(r:p1ulv35304-udm3371) Units=km Length=0.020315000000000003 bus1=udm3371.1.2 bus2=p1ulv35304.1.2 switch=n enabled=y phases=2 Linecode=1P_UG_AL_1/0_Brenau_0_416_0_2_2

New Line.l(r:p1ulv47513-udm3371) Units=km Length=0.0135282 bus1=udm3371.1.2 bus2=p1ulv47513.1.2 switch=n enabled=y phases=2 Linecode=1P_UG_AL_1/0_Brenau_0_416_0_2_2

New Line.l(r:p1ulv50978-udm3374) Units=km Length=0.0125429 bus1=udm3374.1.2 bus2=p1ulv50978.1.2 switch=n enabled=y phases=2 Linecode=1P_UG_AL_1/0_Brenau_0_416_0_2_2

New Line.l(r:udm3371-udm3374) Units=km Length=0.00940688 bus1=udm3371.1.2 bus2=udm3374.1.2 switch=n enabled=y phases=2 Linecode=1P_UG_AL_1/0_Brenau_0_416_0_2_2

New Line.l(r:udm3370-udm3371) Units=km Length=0.00941646 bus1=udm3370.1.2 bus2=udm3371.1.2 switch=n enabled=y phases=2 Linecode=1P_UG_AL_2/0_Converse_0_416_0_2_2

New Line.l(r:udm3370-udt810lv) Units=km Length=0.00941646 bus1=udt810lv.1.2 bus2=udm3370.1.2 switch=n enabled=y phases=2 Linecode=1P_UG_AL_4/0_Sweetbriar_0_416_0_2_2

New Line.l(r:p1ulv1606-udt812lv) Units=km Length=0.0148656 bus1=udt812lv.1.2 bus2=p1ulv1606.1.2 switch=n enabled=y phases=2 Linecode=1P_UG_AL_1/0_Brenau_0_416_0_2_2

New Line.l(r:p1ulv1611-udt812lv) Units=km Length=0.0154273 bus1=udt812lv.1.2 bus2=p1ulv1611.1.2 switch=n enabled=y phases=2 Linecode=1P_UG_AL_1/0_Brenau_0_416_0_2_2

New Line.l(r:p1ulv2894-udm3384) Units=km Length=0.0184171 bus1=udm3384.1.2 bus2=p1ulv2894.1.2 switch=n enabled=y phases=2 Linecode=1P_UG_AL_1/0_Brenau_0_416_0_2_2

New Line.l(r:p1ulv2865-udm3383) Units=km Length=0.0162649 bus1=udm3383.1.2 bus2=p1ulv2865.1.2 switch=n enabled=y phases=2 Linecode=1P_UG_AL_1/0_Brenau_0_416_0_2_2

New Line.l(r:p1ulv38366-udm3385) Units=km Length=0.0184874 bus1=udm3385.1.2 bus2=p1ulv38366.1.2 switch=n enabled=y phases=2 Linecode=1P_UG_AL_1/0_Brenau_0_416_0_2_2

New Line.l(r:udm3383-udm3385) Units=km Length=0.0989903 bus1=udm3383.1.2 bus2=udm3385.1.2 switch=n enabled=y phases=2 Linecode=1P_UG_AL_1/0_Brenau_0_416_0_2_2

New Line.l(r:udm3383-udm3384) Units=km Length=0.0098543 bus1=udm3384.1.2 bus2=udm3383.1.2 switch=n enabled=y phases=2 Linecode=1P_UG_AL_1/0_Brenau_0_416_0_2_2

New Line.l(r:udm3384-udt812lv) Units=km Length=0.00985927 bus1=udt812lv.1.2 bus2=udm3384.1.2 switch=n enabled=y phases=2 Linecode=1P_UG_AL_2/0_Converse_0_416_0_2_2

New Line.l(r:p1ulv43983-udm3386) Units=km Length=0.0152128 bus1=udm3386.1.2 bus2=p1ulv43983.1.2 switch=n enabled=y phases=2 Linecode=1P_UG_AL_1/0_Brenau_0_416_0_2_2

New Line.l(r:p1ulv1613-udm3382) Units=km Length=0.0165635 bus1=udm3382.1.2 bus2=p1ulv1613.1.2 switch=n enabled=y phases=2 Linecode=1P_UG_AL_1/0_Brenau_0_416_0_2_2

New Line.l(r:p1ulv50610-udm3382) Units=km Length=0.017152300000000002 bus1=udm3382.1.2 bus2=p1ulv50610.1.2 switch=n enabled=y phases=2 Linecode=1P_UG_AL_1/0_Brenau_0_416_0_2_2

New Line.l(r:udm3382-udm3386) Units=km Length=0.00985927 bus1=udm3386.1.2 bus2=udm3382.1.2 switch=n enabled=y phases=2 Linecode=1P_UG_AL_1/0_Brenau_0_416_0_2_2

New Line.l(r:udm3386-udt812lv) Units=km Length=0.0098543 bus1=udt812lv.1.2 bus2=udm3386.1.2 switch=n enabled=y phases=2 Linecode=1P_UG_AL_2/0_Converse_0_416_0_2_2

New Line.l(r:p1ulv1614-udm3389) Units=km Length=0.0162375 bus1=udm3389.1.2 bus2=p1ulv1614.1.2 switch=n enabled=y phases=2 Linecode=1P_UG_AL_1/0_Brenau_0_416_0_2_2

New Line.l(r:p1ulv37788-udm3389) Units=km Length=0.015048800000000001 bus1=udm3389.1.2 bus2=p1ulv37788.1.2 switch=n enabled=y phases=2 Linecode=1P_UG_AL_1/0_Brenau_0_416_0_2_2

New Line.l(r:p1ulv1607-udm3388) Units=km Length=0.0163157 bus1=udm3388.1.2 bus2=p1ulv1607.1.2 switch=n enabled=y phases=2 Linecode=1P_UG_AL_1/0_Brenau_0_416_0_2_2

New Line.l(r:p1ulv36918-udm3388) Units=km Length=0.017221400000000005 bus1=udm3388.1.2 bus2=p1ulv36918.1.2 switch=n enabled=y phases=2 Linecode=1P_UG_AL_1/0_Brenau_0_416_0_2_2

New Line.l(r:udm3388-udm3389) Units=km Length=0.0197136 bus1=udm3389.1.2 bus2=udm3388.1.2 switch=n enabled=y phases=2 Linecode=1P_UG_AL_1/0_Brenau_0_416_0_2_2

New Line.l(r:udm3389-udt813lv) Units=km Length=0.00985017 bus1=udt813lv.1.2 bus2=udm3389.1.2 switch=n enabled=y phases=2 Linecode=1P_UG_AL_2/0_Converse_0_416_0_2_2

New Line.l(r:p1ulv36213-udm3390) Units=km Length=0.014402400000000001 bus1=udm3390.1.2 bus2=p1ulv36213.1.2 switch=n enabled=y phases=2 Linecode=1P_UG_AL_1/0_Brenau_0_416_0_2_2

New Line.l(r:p1ulv36414-udm3390) Units=km Length=0.0178061 bus1=udm3390.1.2 bus2=p1ulv36414.1.2 switch=n enabled=y phases=2 Linecode=1P_UG_AL_1/0_Brenau_0_416_0_2_2

New Line.l(r:p1ulv44557-udm3394) Units=km Length=0.0166461 bus1=udm3394.1.2 bus2=p1ulv44557.1.2 switch=n enabled=y phases=2 Linecode=1P_UG_AL_1/0_Brenau_0_416_0_2_2

New Line.l(r:p1ulv46142-udm3394) Units=km Length=0.0148326 bus1=udm3394.1.2 bus2=p1ulv46142.1.2 switch=n enabled=y phases=2 Linecode=1P_UG_AL_1/0_Brenau_0_416_0_2_2

New Line.l(r:udm3390-udm3394) Units=km Length=0.00985927 bus1=udm3390.1.2 bus2=udm3394.1.2 switch=n enabled=y phases=2 Linecode=1P_UG_AL_1/0_Brenau_0_416_0_2_2

New Line.l(r:udm3390-udt813lv) Units=km Length=0.00986341 bus1=udt813lv.1.2 bus2=udm3390.1.2 switch=n enabled=y phases=2 Linecode=1P_UG_AL_4/0_Sweetbriar_0_416_0_2_2

New Line.l(r:p1ulv38145-udt815lv) Units=km Length=0.0157519 bus1=udt815lv.1.2 bus2=p1ulv38145.1.2 switch=n enabled=y phases=2 Linecode=1P_UG_AL_1/0_Brenau_0_416_0_2_2

New Line.l(r:p1ulv1609-udm3397) Units=km Length=0.0134595 bus1=udm3397.1.2 bus2=p1ulv1609.1.2 switch=n enabled=y phases=2 Linecode=1P_UG_AL_1/0_Brenau_0_416_0_2_2

New Line.l(r:udm3397-udt815lv) Units=km Length=0.00948562 bus1=udt815lv.1.2 bus2=udm3397.1.2 switch=n enabled=y phases=2 Linecode=1P_UG_AL_1/0_Brenau_0_416_0_2_2

New Line.l(r:p1ulv28306-udm3398) Units=km Length=0.0181283 bus1=udm3398.1.2 bus2=p1ulv28306.1.2 switch=n enabled=y phases=2 Linecode=1P_UG_AL_1/0_Brenau_0_416_0_2_2

New Line.l(r:udm3398-udt815lv) Units=km Length=0.0189736 bus1=udt815lv.1.2 bus2=udm3398.1.2 switch=n enabled=y phases=2 Linecode=1P_UG_AL_1/0_Brenau_0_416_0_2_2

New Line.l(r:p1ulv47330-udt818lv) Units=km Length=0.0140903 bus1=udt818lv.1.2 bus2=p1ulv47330.1.2 switch=n enabled=y phases=2 Linecode=1P_UG_AL_1/0_Brenau_0_416_0_2_2

New Line.l(r:p1ulv1615-udm3411) Units=km Length=0.00811705 bus1=udm3411.1.2 bus2=p1ulv1615.1.2 switch=n enabled=y phases=2 Linecode=1P_UG_AL_1/0_Brenau_0_416_0_2_2

New Line.l(r:udm3411-udt818lv) Units=km Length=0.028484600000000002 bus1=udt818lv.1.2 bus2=udm3411.1.2 switch=n enabled=y phases=2 Linecode=1P_UG_AL_1/0_Brenau_0_416_0_2_2

New Line.l(r:p1ulv44117-udm3412) Units=km Length=0.0158083 bus1=udm3412.1.2 bus2=p1ulv44117.1.2 switch=n enabled=y phases=2 Linecode=1P_UG_AL_1/0_Brenau_0_416_0_2_2

New Line.l(r:udm3412-udt818lv) Units=km Length=0.0188148 bus1=udt818lv.1.2 bus2=udm3412.1.2 switch=n enabled=y phases=2 Linecode=1P_UG_AL_1/0_Brenau_0_416_0_2_2

New Line.l(r:p1ulv1617-udm3416) Units=km Length=0.0174702 bus1=udm3416.1.2 bus2=p1ulv1617.1.2 switch=n enabled=y phases=2 Linecode=1P_UG_AL_1/0_Brenau_0_416_0_2_2

New Line.l(r:p1ulv40602-udm3416) Units=km Length=0.0181271 bus1=udm3416.1.2 bus2=p1ulv40602.1.2 switch=n enabled=y phases=2 Linecode=1P_UG_AL_1/0_Brenau_0_416_0_2_2

New Line.l(r:udm3416-udt820lv) Units=km Length=0.00947901 bus1=udt820lv.1.2 bus2=udm3416.1.2 switch=n enabled=y phases=2 Linecode=1P_UG_AL_1/0_Brenau_0_416_0_2_2

New Line.l(r:p1ulv44235-udm3418) Units=km Length=0.0165496 bus1=udm3418.1.2 bus2=p1ulv44235.1.2 switch=n enabled=y phases=2 Linecode=1P_UG_AL_1/0_Brenau_0_416_0_2_2

New Line.l(r:udm3418-udt820lv) Units=km Length=0.00947965 bus1=udt820lv.1.2 bus2=udm3418.1.2 switch=n enabled=y phases=2 Linecode=1P_UG_AL_1/0_Brenau_0_416_0_2_2

New Line.l(r:p1ulv1622-udt824lv) Units=km Length=0.0154454 bus1=udt824lv.1.2 bus2=p1ulv1622.1.2 switch=n enabled=y phases=2 Linecode=1P_UG_AL_1/0_Brenau_0_416_0_2_2

New Line.l(r:p1ulv44362-udt824lv) Units=km Length=0.0159632 bus1=udt824lv.1.2 bus2=p1ulv44362.1.2 switch=n enabled=y phases=2 Linecode=1P_UG_AL_1/0_Brenau_0_416_0_2_2

New Line.l(r:p1ulv33963-udm3431) Units=km Length=0.0142292 bus1=udm3431.1.2 bus2=p1ulv33963.1.2 switch=n enabled=y phases=2 Linecode=1P_UG_AL_1/0_Brenau_0_416_0_2_2

New Line.l(r:udm3431-udt824lv) Units=km Length=0.019282 bus1=udt824lv.1.2 bus2=udm3431.1.2 switch=n enabled=y phases=2 Linecode=1P_UG_AL_1/0_Brenau_0_416_0_2_2

New Line.l(r:p1ulv49406-udm3433) Units=km Length=0.0160241 bus1=udm3433.1.2 bus2=p1ulv49406.1.2 switch=n enabled=y phases=2 Linecode=1P_UG_AL_1/0_Brenau_0_416_0_2_2

New Line.l(r:udm3433-udt824lv) Units=km Length=0.00963099 bus1=udt824lv.1.2 bus2=udm3433.1.2 switch=n enabled=y phases=2 Linecode=1P_UG_AL_1/0_Brenau_0_416_0_2_2

New Line.l(r:p1ulv1627-udt828lv) Units=km Length=0.0109554 bus1=udt828lv.1.2 bus2=p1ulv1627.1.2 switch=n enabled=y phases=2 Linecode=1P_UG_AL_1/0_Brenau_0_416_0_2_2

New Line.l(r:p1ulv31930-udm3447) Units=km Length=0.0189081 bus1=udm3447.1.2 bus2=p1ulv31930.1.2 switch=n enabled=y phases=2 Linecode=1P_UG_AL_1/0_Brenau_0_416_0_2_2

New Line.l(r:udm3447-udt828lv) Units=km Length=0.0449878 bus1=udt828lv.1.2 bus2=udm3447.1.2 switch=n enabled=y phases=2 Linecode=1P_UG_AL_1/0_Brenau_0_416_0_2_2

New Line.l(r:p1ulv42706-udm3448) Units=km Length=0.0205098 bus1=udm3448.1.2 bus2=p1ulv42706.1.2 switch=n enabled=y phases=2 Linecode=1P_UG_AL_1/0_Brenau_0_416_0_2_2

New Line.l(r:udm3448-udt828lv) Units=km Length=0.0550211 bus1=udt828lv.1.2 bus2=udm3448.1.2 switch=n enabled=y phases=2 Linecode=1P_UG_AL_1/0_Brenau_0_416_0_2_2

New Line.l(r:p1ulv28959-udt831lv) Units=km Length=0.00902931 bus1=udt831lv.1.2 bus2=p1ulv28959.1.2 switch=n enabled=y phases=2 Linecode=1P_OH_AL_2/0_Rucina_0_416_0_2_2

New Line.l(r:p1ulv33019-udt831lv) Units=km Length=0.019516 bus1=udt831lv.1.2 bus2=p1ulv33019.1.2 switch=n enabled=y phases=2 Linecode=1P_OH_AL_2/0_Rucina_0_416_0_2_2

New Line.l(r:p1ulv1631-udm3461) Units=km Length=0.0192141 bus1=udm3461.1.2 bus2=p1ulv1631.1.2 switch=n enabled=y phases=2 Linecode=1P_OH_AL_2/0_Rucina_0_416_0_2_2

New Line.l(r:p1ulv42851-udm3461) Units=km Length=0.0100696 bus1=udm3461.1.2 bus2=p1ulv42851.1.2 switch=n enabled=y phases=2 Linecode=1P_OH_AL_2/0_Rucina_0_416_0_2_2

New Line.l(r:p1ulv26079-udm3462) Units=km Length=0.0102329 bus1=udm3462.1.2 bus2=p1ulv26079.1.2 switch=n enabled=y phases=2 Linecode=1P_OH_AL_2/0_Rucina_0_416_0_2_2

New Line.l(r:p1ulv29312-udm3466) Units=km Length=0.00951416 bus1=udm3466.1.2 bus2=p1ulv29312.1.2 switch=n enabled=y phases=2 Linecode=1P_OH_AL_2/0_Rucina_0_416_0_2_2

New Line.l(r:udm3462-udm3466) Units=km Length=0.0367746 bus1=udm3462.1.2 bus2=udm3466.1.2 switch=n enabled=y phases=2 Linecode=1P_OH_AL_4/0_Zuzara_0_416_0_2_2

New Line.l(r:udm3461-udm3462) Units=km Length=0.0183923 bus1=udm3461.1.2 bus2=udm3462.1.2 switch=n enabled=y phases=2 Linecode=1P_OH_AL_2/0_Rucina_0_416_0_2_2

New Line.l(r:udm3461-udt831lv) Units=km Length=0.0183921 bus1=udt831lv.1.2 bus2=udm3461.1.2 switch=n enabled=y phases=2 Linecode=1P_OH_AL_2/0_Rucina_0_416_0_2_2

New Line.l(r:p1ulv27995-udm3464) Units=km Length=0.018596800000000004 bus1=udm3464.1.2 bus2=p1ulv27995.1.2 switch=n enabled=y phases=2 Linecode=1P_OH_AL_2/0_Rucina_0_416_0_2_2

New Line.l(r:p1ulv47245-udm3464) Units=km Length=0.0107259 bus1=udm3464.1.2 bus2=p1ulv47245.1.2 switch=n enabled=y phases=2 Linecode=1P_OH_AL_2/0_Rucina_0_416_0_2_2

New Line.l(r:p1ulv27148-udm3463) Units=km Length=0.00927728 bus1=udm3463.1.2 bus2=p1ulv27148.1.2 switch=n enabled=y phases=2 Linecode=1P_OH_AL_2/0_Rucina_0_416_0_2_2

New Line.l(r:p1ulv38427-udm3468) Units=km Length=0.0102259 bus1=udm3468.1.2 bus2=p1ulv38427.1.2 switch=n enabled=y phases=2 Linecode=1P_OH_AL_2/0_Rucina_0_416_0_2_2

New Line.l(r:udm3463-udm3468) Units=km Length=0.0183923 bus1=udm3463.1.2 bus2=udm3468.1.2 switch=n enabled=y phases=2 Linecode=1P_OH_AL_2/0_Rucina_0_416_0_2_2

New Line.l(r:udm3463-udm3464) Units=km Length=0.0183923 bus1=udm3464.1.2 bus2=udm3463.1.2 switch=n enabled=y phases=2 Linecode=1P_OH_AL_2/0_Rucina_0_416_0_2_2

New Line.l(r:udm3464-udt831lv) Units=km Length=0.0183823 bus1=udt831lv.1.2 bus2=udm3464.1.2 switch=n enabled=y phases=2 Linecode=1P_OH_AL_2/0_Rucina_0_416_0_2_2

New Line.l(r:p1ulv1900-udt1024lv) Units=km Length=0.018827000000000003 bus1=udt1024lv.1.2 bus2=p1ulv1900.1.2 switch=n enabled=y phases=2 Linecode=1P_UG_AL_1/0_Brenau_0_416_0_2_2

New Line.l(r:p1ulv46917-udt1024lv) Units=km Length=0.0162237 bus1=udt1024lv.1.2 bus2=p1ulv46917.1.2 switch=n enabled=y phases=2 Linecode=1P_UG_AL_1/0_Brenau_0_416_0_2_2

New Line.l(r:p1ulv1899-udm4140) Units=km Length=0.0185901 bus1=udm4140.1.2 bus2=p1ulv1899.1.2 switch=n enabled=y phases=2 Linecode=1P_UG_AL_1/0_Brenau_0_416_0_2_2

New Line.l(r:p1ulv57345-udm4145) Units=km Length=0.0159443 bus1=udm4145.1.2 bus2=p1ulv57345.1.2 switch=n enabled=y phases=2 Linecode=1P_UG_AL_1/0_Brenau_0_416_0_2_2

New Line.l(r:p1ulv60799-udm4145) Units=km Length=0.017089 bus1=udm4145.1.2 bus2=p1ulv60799.1.2 switch=n enabled=y phases=2 Linecode=1P_UG_AL_1/0_Brenau_0_416_0_2_2

New Line.l(r:udm4140-udm4145) Units=km Length=0.0193757 bus1=udm4140.1.2 bus2=udm4145.1.2 switch=n enabled=y phases=2 Linecode=1P_UG_AL_1/0_Brenau_0_416_0_2_2

New Line.l(r:udm4140-udt1024lv) Units=km Length=0.00969281 bus1=udt1024lv.1.2 bus2=udm4140.1.2 switch=n enabled=y phases=2 Linecode=1P_UG_AL_1/0_Brenau_0_416_0_2_2

New Line.l(r:p1ulv41333-udm4142) Units=km Length=0.0165541 bus1=udm4142.1.2 bus2=p1ulv41333.1.2 switch=n enabled=y phases=2 Linecode=1P_UG_AL_1/0_Brenau_0_416_0_2_2

New Line.l(r:p1ulv54063-udm4144) Units=km Length=0.018214 bus1=udm4144.1.2 bus2=p1ulv54063.1.2 switch=n enabled=y phases=2 Linecode=1P_UG_AL_1/0_Brenau_0_416_0_2_2

New Line.l(r:udm4142-udm4144) Units=km Length=0.00969281 bus1=udm4142.1.2 bus2=udm4144.1.2 switch=n enabled=y phases=2 Linecode=1P_UG_AL_1/0_Brenau_0_416_0_2_2

New Line.l(r:udm4142-udt1024lv) Units=km Length=0.0193856 bus1=udt1024lv.1.2 bus2=udm4142.1.2 switch=n enabled=y phases=2 Linecode=1P_UG_AL_1/0_Brenau_0_416_0_2_2

New Line.l(r:p1ulv56874-udm4152) Units=km Length=0.015570700000000002 bus1=udm4152.1.2 bus2=p1ulv56874.1.2 switch=n enabled=y phases=2 Linecode=1P_UG_AL_1/0_Brenau_0_416_0_2_2

New Line.l(r:p1ulv51038-udm4150) Units=km Length=0.0191495 bus1=udm4150.1.2 bus2=p1ulv51038.1.2 switch=n enabled=y phases=2 Linecode=1P_UG_AL_1/0_Brenau_0_416_0_2_2

New Line.l(r:p1ulv52509-udm4150) Units=km Length=0.017129 bus1=udm4150.1.2 bus2=p1ulv52509.1.2 switch=n enabled=y phases=2 Linecode=1P_UG_AL_1/0_Brenau_0_416_0_2_2

New Line.l(r:p1ulv1901-udm4147) Units=km Length=0.0171872 bus1=udm4147.1.2 bus2=p1ulv1901.1.2 switch=n enabled=y phases=2 Linecode=1P_UG_AL_1/0_Brenau_0_416_0_2_2

New Line.l(r:udm4147-udm4150) Units=km Length=0.0098513 bus1=udm4150.1.2 bus2=udm4147.1.2 switch=n enabled=y phases=2 Linecode=1P_UG_AL_1/0_Brenau_0_416_0_2_2

New Line.l(r:udm4150-udm4152) Units=km Length=0.00978062 bus1=udm4152.1.2 bus2=udm4150.1.2 switch=n enabled=y phases=2 Linecode=1P_UG_AL_2/0_Converse_0_416_0_2_2

New Line.l(r:udm4152-udt1025lv) Units=km Length=0.00977051 bus1=udt1025lv.1.2 bus2=udm4152.1.2 switch=n enabled=y phases=2 Linecode=1P_UG_AL_4/0_Sweetbriar_0_416_0_2_2

New Line.l(r:p1ulv60082-udm4153) Units=km Length=0.0189102 bus1=udm4153.1.2 bus2=p1ulv60082.1.2 switch=n enabled=y phases=2 Linecode=1P_UG_AL_1/0_Brenau_0_416_0_2_2

New Line.l(r:p1ulv38173-udm4149) Units=km Length=0.0151719 bus1=udm4149.1.2 bus2=p1ulv38173.1.2 switch=n enabled=y phases=2 Linecode=1P_UG_AL_1/0_Brenau_0_416_0_2_2

New Line.l(r:p1ulv10083-udm4148) Units=km Length=0.0110174 bus1=udm4148.1.2 bus2=p1ulv10083.1.2 switch=n enabled=y phases=2 Linecode=1P_UG_AL_1/0_Brenau_0_416_0_2_2

New Line.l(r:udm4148-udm4149) Units=km Length=0.0195511 bus1=udm4149.1.2 bus2=udm4148.1.2 switch=n enabled=y phases=2 Linecode=1P_UG_AL_1/0_Brenau_0_416_0_2_2

New Line.l(r:udm4149-udm4153) Units=km Length=0.0195512 bus1=udm4153.1.2 bus2=udm4149.1.2 switch=n enabled=y phases=2 Linecode=1P_UG_AL_1/0_Brenau_0_416_0_2_2

New Line.l(r:udm4153-udt1025lv) Units=km Length=0.00978062 bus1=udt1025lv.1.2 bus2=udm4153.1.2 switch=n enabled=y phases=2 Linecode=1P_UG_AL_2/0_Converse_0_416_0_2_2

New Line.l(r:p1ulv46424-udt1026lv) Units=km Length=0.0167262 bus1=udt1026lv.1.2 bus2=p1ulv46424.1.2 switch=n enabled=y phases=2 Linecode=1P_UG_AL_1/0_Brenau_0_416_0_2_2

New Line.l(r:p1ulv1902-udm4154) Units=km Length=0.0192866 bus1=udm4154.1.2 bus2=p1ulv1902.1.2 switch=n enabled=y phases=2 Linecode=1P_UG_AL_1/0_Brenau_0_416_0_2_2
