New Load.load_p1ulv37 conn=wye bus1=p1ulv37.1.2 kV=0.2080002494301389 Vminpu=0.8 Vmaxpu=1.2 model=1 kW=3.15003 kvar=0.6396408727569326 Phases=2

New Load.load_p1ulv38 conn=wye bus1=p1ulv38.1.2 kV=0.2080002494301389 Vminpu=0.8 Vmaxpu=1.2 model=1 kW=1.38001 kvar=0.28022298226153225 Phases=2

New Load.load_p1ulv39 conn=wye bus1=p1ulv38.1.2 kV=0.2080002494301389 Vminpu=0.8 Vmaxpu=1.2 model=1 kW=4.07004 kvar=0.8307064585474014 Phases=2

New Load.load_p1ulv146 conn=wye bus1=p1ulv146.1.2 kV=0.2080002494301389 Vminpu=0.8 Vmaxpu=1.2 model=1 kW=3.41003 kvar=0.6906498322195993 Phases=2

New Load.load_p1ulv149 conn=wye bus1=p1ulv149.1.2 kV=0.2080002494301389 Vminpu=0.8 Vmaxpu=1.2 model=1 kW=17.82003 kvar=0.5696736784206362 Phases=2

New Load.load_p1ulv150 conn=wye bus1=p1ulv150.1.2 kV=0.2080002494301389 Vminpu=0.8 Vmaxpu=1.2 model=1 kW=10.86003 kvar=0.6805230909267135 Phases=2

New Load.load_p1ulv151 conn=wye bus1=p1ulv151.1.2 kV=0.2080002494301389 Vminpu=0.8 Vmaxpu=1.2 model=1 kW=3.82004 kvar=0.7796807647859518 Phases=2

New Load.load_p1ulv152 conn=wye bus1=p1ulv152.1.2 kV=0.2080002494301389 Vminpu=0.8 Vmaxpu=1.2 model=1 kW=10.62003 kvar=0.6302766165192346 Phases=2

New Load.load_p1ulv153 conn=wye bus1=p1ulv153.1.2.3 kV=0.48 Vminpu=0.8 Vmaxpu=1.2 model=1 kW=40.2104 kvar=8.165069967557566 Phases=3

New Load.load_p1ulv155 conn=wye bus1=p1ulv155.1.2 kV=0.2080002494301389 Vminpu=0.8 Vmaxpu=1.2 model=1 kW=10.88003 kvar=0.6898735027380501 Phases=2

New Load.load_p1ulv156 conn=wye bus1=p1ulv156.1.2 kV=0.2080002494301389 Vminpu=0.8 Vmaxpu=1.2 model=1 kW=3.18003 kvar=0.6507075106785133 Phases=2

New Load.load_p1ulv1592 conn=wye bus1=p1ulv1592.1.2 kV=0.2080002494301389 Vminpu=0.8 Vmaxpu=1.2 model=1 kW=26.01004 kvar=0.7109053401536299 Phases=2

New Load.load_p1ulv1601 conn=wye bus1=p1ulv1601.1.2 kV=0.2080002494301389 Vminpu=0.8 Vmaxpu=1.2 model=1 kW=12.31005 kvar=0.9792362671748885 Phases=2

New Load.load_p1ulv1603 conn=wye bus1=p1ulv1603.1.2 kV=0.2080002494301389 Vminpu=0.8 Vmaxpu=1.2 model=1 kW=4.37004 kvar=0.8896584561501336 Phases=2

New Load.load_p1ulv1604 conn=wye bus1=p1ulv1604.1.2 kV=0.2080002494301389 Vminpu=0.8 Vmaxpu=1.2 model=1 kW=11.970040000000001 kvar=0.9100165868800613 Phases=2

New Load.load_p1ulv1606 conn=wye bus1=p1ulv1606.1.2 kV=0.2080002494301389 Vminpu=0.8 Vmaxpu=1.2 model=1 kW=3.18003 kvar=0.6407237481987894 Phases=2

New Load.load_p1ulv1607 conn=wye bus1=p1ulv1607.1.2 kV=0.2080002494301389 Vminpu=0.8 Vmaxpu=1.2 model=1 kW=10.85003 kvar=0.6802526048837334 Phases=2

New Load.load_p1ulv1609 conn=wye bus1=p1ulv1609.1.2 kV=0.2080002494301389 Vminpu=0.8 Vmaxpu=1.2 model=1 kW=2.86003 kvar=0.5807538611730713 Phases=2

New Load.load_p1ulv1611 conn=wye bus1=p1ulv1611.1.2 kV=0.2080002494301389 Vminpu=0.8 Vmaxpu=1.2 model=1 kW=3.18003 kvar=0.6507075106785133 Phases=2

New Load.load_p1ulv1613 conn=wye bus1=p1ulv1613.1.2 kV=0.2080002494301389 Vminpu=0.8 Vmaxpu=1.2 model=1 kW=3.6900400000000007 kvar=0.7492945800859013 Phases=2

New Load.load_p1ulv1614 conn=wye bus1=p1ulv1614.1.2 kV=0.2080002494301389 Vminpu=0.8 Vmaxpu=1.2 model=1 kW=9.61002 kvar=0.42956063002762096 Phases=2

New Load.load_p1ulv1615 conn=wye bus1=p1ulv1615.1.2 kV=0.2080002494301389 Vminpu=0.8 Vmaxpu=1.2 model=1 kW=25.85003 kvar=0.6802526048837334 Phases=2

New Load.load_p1ulv1617 conn=wye bus1=p1ulv1617.1.2 kV=0.2080002494301389 Vminpu=0.8 Vmaxpu=1.2 model=1 kW=11.59004 kvar=0.8305180443395029 Phases=2

New Load.load_p1ulv1622 conn=wye bus1=p1ulv1622.1.2 kV=0.2080002494301389 Vminpu=0.8 Vmaxpu=1.2 model=1 kW=11.11004 kvar=0.7292634355115489 Phases=2

New Load.load_p1ulv1627 conn=wye bus1=p1ulv1627.1.2 kV=0.2080002494301389 Vminpu=0.8 Vmaxpu=1.2 model=1 kW=3.42003 kvar=0.6998170481869153 Phases=2

New Load.load_p1ulv1631 conn=wye bus1=p1ulv1631.1.2 kV=0.2080002494301389 Vminpu=0.8 Vmaxpu=1.2 model=1 kW=10.95003 kvar=0.7005584709471337 Phases=2

New Load.load_p1ulv1638 conn=wye bus1=p1ulv1638.1.2.3 kV=0.48 Vminpu=0.8 Vmaxpu=1.2 model=1 kW=46.46050000000001 kvar=9.434206902386158 Phases=3

New Load.load_p1ulv1897 conn=wye bus1=p1ulv1897.1.2.3 kV=0.48 Vminpu=0.8 Vmaxpu=1.2 model=1 kW=81.5408 kvar=16.557565635025217 Phases=3

New Load.load_p1ulv1898 conn=wye bus1=p1ulv1898.1.2.3 kV=0.48 Vminpu=0.8 Vmaxpu=1.2 model=1 kW=284.563 kvar=57.782981645994155 Phases=3

New Load.load_p1ulv1899 conn=wye bus1=p1ulv1899.1.2 kV=0.2080002494301389 Vminpu=0.8 Vmaxpu=1.2 model=1 kW=2.46002 kvar=0.49952836633286324 Phases=2

New Load.load_p1ulv1900 conn=wye bus1=p1ulv1900.1.2 kV=0.2080002494301389 Vminpu=0.8 Vmaxpu=1.2 model=1 kW=2.5100300000000004 kvar=0.5096833299511698 Phases=2

New Load.load_p1ulv1901 conn=wye bus1=p1ulv1901.1.2 kV=0.2080002494301389 Vminpu=0.8 Vmaxpu=1.2 model=1 kW=2.72003 kvar=0.5494726990544365 Phases=2

New Load.load_p1ulv1902 conn=wye bus1=p1ulv1902.1.2 kV=0.2080002494301389 Vminpu=0.8 Vmaxpu=1.2 model=1 kW=10.650030000000001 kvar=0.6396408727569326 Phases=2

New Load.load_p1ulv1903 conn=wye bus1=p1ulv1903.1.2 kV=0.2080002494301389 Vminpu=0.8 Vmaxpu=1.2 model=1 kW=3.60004 kvar=0.7291334744808246 Phases=2

New Load.load_p1ulv1904 conn=wye bus1=p1ulv1904.1.2 kV=0.2080002494301389 Vminpu=0.8 Vmaxpu=1.2 model=1 kW=1.67002 kvar=0.339984854815939 Phases=2

New Load.load_p1ulv1905 conn=wye bus1=p1ulv1905.1.2 kV=0.2080002494301389 Vminpu=0.8 Vmaxpu=1.2 model=1 kW=11.390039999999999 kvar=0.789906312212702 Phases=2

New Load.load_p1ulv1906 conn=wye bus1=p1ulv1906.1.2 kV=0.2080002494301389 Vminpu=0.8 Vmaxpu=1.2 model=1 kW=10.39003 kvar=0.5898631429656088 Phases=2

New Load.load_p1ulv1907 conn=wye bus1=p1ulv1907.1.2 kV=0.2080002494301389 Vminpu=0.8 Vmaxpu=1.2 model=1 kW=11.470040000000001 kvar=0.8102961810428216 Phases=2

New Load.load_p1ulv1908 conn=wye bus1=p1ulv1908.1.2 kV=0.2080002494301389 Vminpu=0.8 Vmaxpu=1.2 model=1 kW=10.70003 kvar=0.6497938057886328 Phases=2

New Load.load_p1ulv1909 conn=wye bus1=p1ulv1909.1.2 kV=0.2080002494301389 Vminpu=0.8 Vmaxpu=1.2 model=1 kW=17.90003 kvar=0.5903918986071232 Phases=2

New Load.load_p1ulv1910 conn=wye bus1=p1ulv1910.1.2 kV=0.2080002494301389 Vminpu=0.8 Vmaxpu=1.2 model=1 kW=3.89004 kvar=0.789906312212702 Phases=2

New Load.load_p1ulv1911 conn=wye bus1=p1ulv1911.1.2 kV=0.2080002494301389 Vminpu=0.8 Vmaxpu=1.2 model=1 kW=11.21004 kvar=0.7494644148777485 Phases=2

New Load.load_p1ulv1912 conn=wye bus1=p1ulv1912.1.2 kV=0.2080002494301389 Vminpu=0.8 Vmaxpu=1.2 model=1 kW=10.70003 kvar=0.6497938057886328 Phases=2

New Load.load_p1ulv1913 conn=wye bus1=p1ulv1913.1.2 kV=0.2080002494301389 Vminpu=0.8 Vmaxpu=1.2 model=1 kW=1.88002 kvar=0.37978245228042407 Phases=2

New Load.load_p1ulv1914 conn=wye bus1=p1ulv1914.1.2 kV=0.2080002494301389 Vminpu=0.8 Vmaxpu=1.2 model=1 kW=9.830020000000001 kvar=0.469460711936096 Phases=2

New Load.load_p1ulv1915 conn=wye bus1=p1ulv1915.1.2 kV=0.2080002494301389 Vminpu=0.8 Vmaxpu=1.2 model=1 kW=11.26004 kvar=0.7595649045608481 Phases=2

New Load.load_p1ulv1916 conn=wye bus1=p1ulv1916.1.2 kV=0.2080002494301389 Vminpu=0.8 Vmaxpu=1.2 model=1 kW=10.95003 kvar=0.7005584709471337 Phases=2

New Load.load_p1ulv1917 conn=wye bus1=p1ulv1917.1.2 kV=0.2080002494301389 Vminpu=0.8 Vmaxpu=1.2 model=1 kW=3.36003 kvar=0.6805230909267135 Phases=2

New Load.load_p1ulv1918 conn=wye bus1=p1ulv1918.1.2 kV=0.2080002494301389 Vminpu=0.8 Vmaxpu=1.2 model=1 kW=3.25003 kvar=0.659946738820333 Phases=2

New Load.load_p1ulv1919 conn=wye bus1=p1ulv1919.1.2 kV=0.2080002494301389 Vminpu=0.8 Vmaxpu=1.2 model=1 kW=10.96003 kvar=0.7007765735124853 Phases=2

New Load.load_p1ulv1920 conn=wye bus1=p1ulv1920.1.2 kV=0.2080002494301389 Vminpu=0.8 Vmaxpu=1.2 model=1 kW=9.76002 kvar=0.4600978261225126 Phases=2

New Load.load_p1ulv1921 conn=wye bus1=p1ulv1921.1.2 kV=0.2080002494301389 Vminpu=0.8 Vmaxpu=1.2 model=1 kW=26.83004 kvar=0.879252122891664 Phases=2

New Load.load_p1ulv2826 conn=wye bus1=p1ulv2826.1.2.3 kV=0.48 Vminpu=0.8 Vmaxpu=1.2 model=1 kW=245.392 kvar=49.82897085029958 Phases=3

New Load.load_p1ulv2828 conn=wye bus1=p1ulv2828.1.2 kV=0.2080002494301389 Vminpu=0.8 Vmaxpu=1.2 model=1 kW=13.2801 kvar=2.6966393190856404 Phases=2

New Load.load_p1ulv2836 conn=wye bus1=p1ulv2836.1.2.3 kV=0.48 Vminpu=0.8 Vmaxpu=1.2 model=1 kW=45.0405 kvar=9.145863604285871 Phases=3

New Load.load_p1ulv2845 conn=wye bus1=p1ulv2845.1.2 kV=0.2080002494301389 Vminpu=0.8 Vmaxpu=1.2 model=1 kW=2.91003 kvar=0.5893824192907394 Phases=2

New Load.load_p1ulv2846 conn=wye bus1=p1ulv2846.1.2 kV=0.2080002494301389 Vminpu=0.8 Vmaxpu=1.2 model=1 kW=11.11004 kvar=0.7292634355115489 Phases=2

New Load.load_p1ulv2847 conn=wye bus1=p1ulv2847.1.2 kV=0.2080002494301389 Vminpu=0.8 Vmaxpu=1.2 model=1 kW=3.44003 kvar=0.7003258045487328 Phases=2

New Load.load_p1ulv2848 conn=wye bus1=p1ulv2848.1.2 kV=0.2080002494301389 Vminpu=0.8 Vmaxpu=1.2 model=1 kW=3.13003 kvar=0.6404763570309296 Phases=2

New Load.load_p1ulv2849 conn=wye bus1=p1ulv2849.1.2 kV=0.2080002494301389 Vminpu=0.8 Vmaxpu=1.2 model=1 kW=3.38003 kvar=0.6898735027380501 Phases=2

New Load.load_p1ulv2850 conn=wye bus1=p1ulv2850.1.2 kV=0.2080002494301389 Vminpu=0.8 Vmaxpu=1.2 model=1 kW=3.21003 kvar=0.6501428670480555 Phases=2

New Load.load_p1ulv2851 conn=wye bus1=p1ulv2851.1.2 kV=0.2080002494301389 Vminpu=0.8 Vmaxpu=1.2 model=1 kW=19.98005 kvar=1.011242282890373 Phases=2

New Load.load_p1ulv2852 conn=wye bus1=p1ulv2852.1.2.3 kV=0.48 Vminpu=0.8 Vmaxpu=1.2 model=1 kW=25.750300000000003 kvar=8.463714313587282 Phases=3

New Load.load_p1ulv2853 conn=wye bus1=p1ulv2853.1.2 kV=0.2080002494301389 Vminpu=0.8 Vmaxpu=1.2 model=1 kW=4.14004 kvar=1.3592956687066866 Phases=2

New Load.load_p1ulv2854 conn=wye bus1=p1ulv2854.1.2 kV=0.2080002494301389 Vminpu=0.8 Vmaxpu=1.2 model=1 kW=3.39003 kvar=0.6901467391837689 Phases=2

New Load.load_p1ulv2855 conn=wye bus1=p1ulv2855.1.2 kV=0.2080002494301389 Vminpu=0.8 Vmaxpu=1.2 model=1 kW=9.00009 kvar=2.961379033477071 Phases=2

New Load.load_p1ulv2856 conn=wye bus1=p1ulv2856.1.2 kV=0.2080002494301389 Vminpu=0.8 Vmaxpu=1.2 model=1 kW=18.30003 kvar=0.6700996718520332 Phases=2

New Load.load_p1ulv2857 conn=wye bus1=p1ulv2857.1.2 kV=0.2080002494301389 Vminpu=0.8 Vmaxpu=1.2 model=1 kW=19.1502 kvar=3.888613962873309 Phases=2

New Load.load_p1ulv2858 conn=wye bus1=p1ulv2858.1.2 kV=0.2080002494301389 Vminpu=0.8 Vmaxpu=1.2 model=1 kW=10.83003 kvar=0.6796683639857601 Phases=2

New Load.load_p1ulv2860 conn=wye bus1=p1ulv2856.1.2 kV=0.2080002494301389 Vminpu=0.8 Vmaxpu=1.2 model=1 kW=18.69004 kvar=0.7492945800859013 Phases=2

New Load.load_p1ulv2861 conn=wye bus1=p1ulv2861.1.2 kV=0.2080002494301389 Vminpu=0.8 Vmaxpu=1.2 model=1 kW=3.7100400000000002 kvar=0.7494644148777485 Phases=2

New Load.load_p1ulv2862 conn=wye bus1=p1ulv2862.1.2 kV=0.2080002494301389 Vminpu=0.8 Vmaxpu=1.2 model=1 kW=3.27003 kvar=0.660578085568534 Phases=2

New Load.load_p1ulv2863 conn=wye bus1=p1ulv2863.1.2 kV=0.2080002494301389 Vminpu=0.8 Vmaxpu=1.2 model=1 kW=2.87003 kvar=0.5797741681037358 Phases=2

New Load.load_p1ulv2865 conn=wye bus1=p1ulv2865.1.2 kV=0.2080002494301389 Vminpu=0.8 Vmaxpu=1.2 model=1 kW=10.42003 kvar=0.5898746577868357 Phases=2

New Load.load_p1ulv2866 conn=wye bus1=p1ulv2866.1.2 kV=0.2080002494301389 Vminpu=0.8 Vmaxpu=1.2 model=1 kW=16.15009 kvar=1.7609966304564053 Phases=2

New Load.load_p1ulv2867 conn=wye bus1=p1ulv2867.1.2.3 kV=0.48 Vminpu=0.8 Vmaxpu=1.2 model=1 kW=28.5803 kvar=5.8034774385180325 Phases=3

New Load.load_p1ulv2868 conn=wye bus1=p1ulv2868.1.2 kV=0.2080002494301389 Vminpu=0.8 Vmaxpu=1.2 model=1 kW=10.42003 kvar=0.5898746577868357 Phases=2

New Load.load_p1ulv2869 conn=wye bus1=p1ulv2869.1.2 kV=0.2080002494301389 Vminpu=0.8 Vmaxpu=1.2 model=1 kW=11.21004 kvar=0.7494644148777485 Phases=2

New Load.load_p1ulv2870 conn=wye bus1=p1ulv2870.1.2.3 kV=0.48 Vminpu=0.8 Vmaxpu=1.2 model=1 kW=31.3103 kvar=6.357827582048865 Phases=3

New Load.load_p1ulv2871 conn=wye bus1=p1ulv2871.1.2 kV=0.2080002494301389 Vminpu=0.8 Vmaxpu=1.2 model=1 kW=4.65005 kvar=0.9393556410179604 Phases=2

New Load.load_p1ulv2872 conn=wye bus1=p1ulv2872.1.2.3 kV=0.48 Vminpu=0.8 Vmaxpu=1.2 model=1 kW=28.300299999999996 kvar=5.746621013540511 Phases=3

New Load.load_p1ulv2873 conn=wye bus1=p1ulv2873.1.2 kV=0.2080002494301389 Vminpu=0.8 Vmaxpu=1.2 model=1 kW=2.7800300000000004 kvar=0.5601303263507202 Phases=2

New Load.load_p1ulv2874 conn=wye bus1=p1ulv2874.1.2.3 kV=0.48 Vminpu=0.8 Vmaxpu=1.2 model=1 kW=31.590299999999996 kvar=6.414684007026386 Phases=3

New Load.load_p1ulv2875 conn=wye bus1=p1ulv2875.1.2.3 kV=0.48 Vminpu=0.8 Vmaxpu=1.2 model=1 kW=34.130300000000005 kvar=6.930453005036757 Phases=3

New Load.load_p1ulv2876 conn=wye bus1=p1ulv2876.1.2 kV=0.2080002494301389 Vminpu=0.8 Vmaxpu=1.2 model=1 kW=18.95004 kvar=0.8000206635310265 Phases=2

New Load.load_p1ulv2877 conn=wye bus1=p1ulv2877.1.2 kV=0.2080002494301389 Vminpu=0.8 Vmaxpu=1.2 model=1 kW=3.42003 kvar=0.6908795546178332 Phases=2

New Load.load_p1ulv2878 conn=wye bus1=p1ulv2878.1.2.3 kV=0.48 Vminpu=0.8 Vmaxpu=1.2 model=1 kW=30.8603 kvar=6.266451184763563 Phases=3

New Load.load_p1ulv2879 conn=wye bus1=p1ulv2879.1.2 kV=0.2080002494301389 Vminpu=0.8 Vmaxpu=1.2 model=1 kW=3.17003 kvar=0.6403771062023346 Phases=2

New Load.load_p1ulv2880 conn=wye bus1=p1ulv2880.1.2.3 kV=0.48 Vminpu=0.8 Vmaxpu=1.2 model=1 kW=30.990300000000005 kvar=6.2928488106459834 Phases=3

New Load.load_p1ulv2882 conn=wye bus1=p1ulv2882.1.2 kV=0.2080002494301389 Vminpu=0.8 Vmaxpu=1.2 model=1 kW=3.02003 kvar=0.6100756371530351 Phases=2

New Load.load_p1ulv2883 conn=wye bus1=p1ulv2883.1.2.3 kV=0.48 Vminpu=0.8 Vmaxpu=1.2 model=1 kW=33.9403 kvar=6.891871859516296 Phases=3

New Load.load_p1ulv2885 conn=wye bus1=p1ulv2885.1.2.3 kV=0.48 Vminpu=0.8 Vmaxpu=1.2 model=1 kW=31.6703 kvar=6.430928699877106 Phases=3

New Load.load_p1ulv2886 conn=wye bus1=p1ulv2886.1.2 kV=0.2080002494301389 Vminpu=0.8 Vmaxpu=1.2 model=1 kW=11.91004 kvar=0.900101402062973 Phases=2

New Load.load_p1ulv2887 conn=wye bus1=p1ulv2887.1.2 kV=0.2080002494301389 Vminpu=0.8 Vmaxpu=1.2 model=1 kW=2.85003 kvar=0.5802128332421591 Phases=2

New Load.load_p1ulv2888 conn=wye bus1=p1ulv2888.1.2.3 kV=0.48 Vminpu=0.8 Vmaxpu=1.2 model=1 kW=28.780300000000004 kvar=5.844089170644835 Phases=3

New Load.load_p1ulv2889 conn=wye bus1=p1ulv2889.1.2 kV=0.2080002494301389 Vminpu=0.8 Vmaxpu=1.2 model=1 kW=4.08004 kvar=0.8306198770333432 Phases=2

New Load.load_p1ulv2891 conn=wye bus1=p1ulv2891.1.2 kV=0.2080002494301389 Vminpu=0.8 Vmaxpu=1.2 model=1 kW=9.670020000000001 kvar=0.4395046228077686 Phases=2

New Load.load_p1ulv2892 conn=wye bus1=p1ulv2876.1.2 kV=0.2080002494301389 Vminpu=0.8 Vmaxpu=1.2 model=1 kW=18.03003 kvar=0.6200140497357622 Phases=2

New Load.load_p1ulv2893 conn=wye bus1=p1ulv2893.1.2 kV=0.2080002494301389 Vminpu=0.8 Vmaxpu=1.2 model=1 kW=9.80002 kvar=0.46944046466083733 Phases=2

New Load.load_p1ulv2894 conn=wye bus1=p1ulv2894.1.2 kV=0.2080002494301389 Vminpu=0.8 Vmaxpu=1.2 model=1 kW=9.840019999999999 kvar=0.47024129121548364 Phases=2

New Load.load_p1ulv2895 conn=wye bus1=p1ulv2895.1.2 kV=0.2080002494301389 Vminpu=0.8 Vmaxpu=1.2 model=1 kW=1.9900200000000001 kvar=0.4102964266439281 Phases=2

New Load.load_p1ulv2896 conn=wye bus1=p1ulv2896.1.2 kV=0.2080002494301389 Vminpu=0.8 Vmaxpu=1.2 model=1 kW=15.5402 kvar=3.147431700794133 Phases=2

New Load.load_p1ulv2897 conn=wye bus1=p1ulv2897.1.2 kV=0.2080002494301389 Vminpu=0.8 Vmaxpu=1.2 model=1 kW=3.11003 kvar=0.6298893844622836 Phases=2

New Load.load_p1ulv2898 conn=wye bus1=p1ulv2898.1.2 kV=0.2080002494301389 Vminpu=0.8 Vmaxpu=1.2 model=1 kW=4.2400400000000005 kvar=0.8609768434346036 Phases=2

New Load.load_p1ulv2905 conn=wye bus1=p1ulv2905.1.2 kV=0.2080002494301389 Vminpu=0.8 Vmaxpu=1.2 model=1 kW=10.52003 kvar=0.6100756371530351 Phases=2

New Load.load_p1ulv2907 conn=wye bus1=p1ulv2907.1.2 kV=0.2080002494301389 Vminpu=0.8 Vmaxpu=1.2 model=1 kW=25.98003 kvar=0.71028378024263 Phases=2

New Load.load_p1ulv2908 conn=wye bus1=p1ulv2908.1.2 kV=0.2080002494301389 Vminpu=0.8 Vmaxpu=1.2 model=1 kW=2.87003 kvar=0.5797741681037358 Phases=2

New Load.load_p1ulv2910 conn=wye bus1=p1ulv2907.1.2 kV=0.2080002494301389 Vminpu=0.8 Vmaxpu=1.2 model=1 kW=25.91003 kvar=0.6906498322195993 Phases=2

New Load.load_p1ulv2911 conn=wye bus1=p1ulv2911.1.2 kV=0.2080002494301389 Vminpu=0.8 Vmaxpu=1.2 model=1 kW=17.87003 kvar=0.5797741681037358 Phases=2

New Load.load_p1ulv2913 conn=wye bus1=p1ulv2913.1.2 kV=0.2080002494301389 Vminpu=0.8 Vmaxpu=1.2 model=1 kW=3.36003 kvar=0.6805230909267135 Phases=2

New Load.load_p1ulv2914 conn=wye bus1=p1ulv2914.1.2 kV=0.2080002494301389 Vminpu=0.8 Vmaxpu=1.2 model=1 kW=17.88003 kvar=0.5802786818127376 Phases=2

New Load.load_p1ulv2915 conn=wye bus1=p1ulv2915.1.2 kV=0.2080002494301389 Vminpu=0.8 Vmaxpu=1.2 model=1 kW=3.72004 kvar=0.7592704872813721 Phases=2

New Load.load_p1ulv2917 conn=wye bus1=p1ulv2917.1.2 kV=0.2080002494301389 Vminpu=0.8 Vmaxpu=1.2 model=1 kW=3.0300300000000004 kvar=0.6200140497357622 Phases=2

New Load.load_p1ulv2920 conn=wye bus1=p1ulv2920.1.2 kV=0.2080002494301389 Vminpu=0.8 Vmaxpu=1.2 model=1 kW=10.74003 kvar=0.6596095430888772 Phases=2

New Load.load_p1ulv3595 conn=wye bus1=p1ulv3595.1.2 kV=0.2080002494301389 Vminpu=0.8 Vmaxpu=1.2 model=1 kW=26.35004 kvar=0.7797671809452545 Phases=2

New Load.load_p1ulv3596 conn=wye bus1=p1ulv3596.1.2 kV=0.2080002494301389 Vminpu=0.8 Vmaxpu=1.2 model=1 kW=11.03004 kvar=0.7204909600226704 Phases=2

New Load.load_p1ulv3597 conn=wye bus1=p1ulv3597.1.2 kV=0.2080002494301389 Vminpu=0.8 Vmaxpu=1.2 model=1 kW=4.09004 kvar=0.8305180443395029 Phases=2

New Load.load_p1ulv3598 conn=wye bus1=p1ulv3598.1.2 kV=0.2080002494301389 Vminpu=0.8 Vmaxpu=1.2 model=1 kW=3.23003 kvar=0.6592580864811803 Phases=2

New Load.load_p1ulv3599 conn=wye bus1=p1ulv3599.1.2 kV=0.2080002494301389 Vminpu=0.8 Vmaxpu=1.2 model=1 kW=3.0100300000000004 kvar=0.6096359018765115 Phases=2

New Load.load_p1ulv3600 conn=wye bus1=p1ulv3600.1.2 kV=0.2080002494301389 Vminpu=0.8 Vmaxpu=1.2 model=1 kW=11.00004 kvar=0.7107134345654403 Phases=2

New Load.load_p1ulv3601 conn=wye bus1=p1ulv3601.1.2 kV=0.2080002494301389 Vminpu=0.8 Vmaxpu=1.2 model=1 kW=11.380040000000001 kvar=0.7899036155734878 Phases=2

New Load.load_p1ulv3602 conn=wye bus1=p1ulv3602.1.2 kV=0.2080002494301389 Vminpu=0.8 Vmaxpu=1.2 model=1 kW=10.95003 kvar=0.7005584709471337 Phases=2

New Load.load_p1ulv4000 conn=wye bus1=p1ulv4000.1.2 kV=0.2080002494301389 Vminpu=0.8 Vmaxpu=1.2 model=1 kW=2.07002 kvar=0.4203354886856016 Phases=2

New Load.load_p1ulv6401 conn=wye bus1=p1ulv6401.1.2 kV=0.2080002494301389 Vminpu=0.8 Vmaxpu=1.2 model=1 kW=2.88003 kvar=0.5802786818127376 Phases=2

New Load.load_p1ulv6402 conn=wye bus1=p1ulv6402.1.2 kV=0.2080002494301389 Vminpu=0.8 Vmaxpu=1.2 model=1 kW=4.70005 kvar=0.9494561307010603 Phases=2

New Load.load_p1ulv6403 conn=wye bus1=p1ulv6403.1.2 kV=0.2080002494301389 Vminpu=0.8 Vmaxpu=1.2 model=1 kW=13.15006 kvar=1.1502466011193542 Phases=2

New Load.load_p1ulv6404 conn=wye bus1=p1ulv6404.1.2 kV=0.2080002494301389 Vminpu=0.8 Vmaxpu=1.2 model=1 kW=2.77003 kvar=0.5595731887375364 Phases=2

New Load.load_p1ulv8806 conn=wye bus1=p1ulv8806.1.2 kV=0.2080002494301389 Vminpu=0.8 Vmaxpu=1.2 model=1 kW=33.87004 kvar=0.7898859035382418 Phases=2

New Load.load_p1ulv8807 conn=wye bus1=p1ulv8807.1.2 kV=0.2080002494301389 Vminpu=0.8 Vmaxpu=1.2 model=1 kW=1.38001 kvar=0.28022298226153225 Phases=2

New Load.load_p1ulv8808 conn=wye bus1=p1ulv8808.1.2 kV=0.2080002494301389 Vminpu=0.8 Vmaxpu=1.2 model=1 kW=2.56003 kvar=0.5198362629828699 Phases=2

New Load.load_p1ulv8809 conn=wye bus1=p1ulv8809.1.2 kV=0.2080002494301389 Vminpu=0.8 Vmaxpu=1.2 model=1 kW=1.90002 kvar=0.3897743018115738 Phases=2

New Load.load_p1ulv8810 conn=wye bus1=p1ulv8810.1.2 kV=0.2080002494301389 Vminpu=0.8 Vmaxpu=1.2 model=1 kW=1.38001 kvar=0.28022298226153225 Phases=2

New Load.load_p1ulv8812 conn=wye bus1=p1ulv8812.1.2 kV=0.2080002494301389 Vminpu=0.8 Vmaxpu=1.2 model=1 kW=18.14003 kvar=0.6392514123589496 Phases=2

New Load.load_p1ulv8815 conn=wye bus1=p1ulv8815.1.2.3 kV=0.48 Vminpu=0.8 Vmaxpu=1.2 model=1 kW=69.75069999999998 kvar=14.16348372028424 Phases=3

New Load.load_p1ulv10080 conn=wye bus1=p1ulv10080.1.2 kV=0.2080002494301389 Vminpu=0.8 Vmaxpu=1.2 model=1 kW=18.48003 kvar=0.71028378024263 Phases=2

New Load.load_p1ulv10081 conn=wye bus1=p1ulv10081.1.2 kV=0.2080002494301389 Vminpu=0.8 Vmaxpu=1.2 model=1 kW=10.88003 kvar=0.6898735027380501 Phases=2

New Load.load_p1ulv10082 conn=wye bus1=p1ulv10082.1.2 kV=0.2080002494301389 Vminpu=0.8 Vmaxpu=1.2 model=1 kW=2.97003 kvar=0.5999751474699353 Phases=2

New Load.load_p1ulv10083 conn=wye bus1=p1ulv10083.1.2 kV=0.2080002494301389 Vminpu=0.8 Vmaxpu=1.2 model=1 kW=3.22003 kvar=0.6504775958854341 Phases=2

New Load.load_p1ulv10084 conn=wye bus1=p1ulv10084.1.2 kV=0.2080002494301389 Vminpu=0.8 Vmaxpu=1.2 model=1 kW=2.34002 kvar=0.47024129121548364 Phases=2

New Load.load_p1ulv10085 conn=wye bus1=p1ulv10085.1.2 kV=0.2080002494301389 Vminpu=0.8 Vmaxpu=1.2 model=1 kW=1.38001 kvar=0.28022298226153225 Phases=2

New Load.load_p1ulv10086 conn=wye bus1=p1ulv10086.1.2 kV=0.2080002494301389 Vminpu=0.8 Vmaxpu=1.2 model=1 kW=1.38001 kvar=0.28022298226153225 Phases=2

New Load.load_p1ulv10087 conn=wye bus1=p1ulv10087.1.2 kV=0.2080002494301389 Vminpu=0.8 Vmaxpu=1.2 model=1 kW=33.21003 kvar=0.6501428670480555 Phases=2

New Load.load_p1ulv10088 conn=wye bus1=p1ulv10088.1.2 kV=0.2080002494301389 Vminpu=0.8 Vmaxpu=1.2 model=1 kW=10.42003 kvar=0.5898746577868357 Phases=2

New Load.load_p1ulv10089 conn=wye bus1=p1ulv10089.1.2 kV=0.2080002494301389 Vminpu=0.8 Vmaxpu=1.2 model=1 kW=2.7600300000000004 kvar=0.5604479951096709 Phases=2

New Load.load_p1ulv10090 conn=wye bus1=p1ulv10090.1.2 kV=0.2080002494301389 Vminpu=0.8 Vmaxpu=1.2 model=1 kW=1.38001 kvar=0.28022298226153225 Phases=2

New Load.load_p1ulv10091 conn=wye bus1=p1ulv10091.1.2 kV=0.2080002494301389 Vminpu=0.8 Vmaxpu=1.2 model=1 kW=10.50003 kvar=0.6107500293370508 Phases=2

New Load.load_p1ulv10092 conn=wye bus1=p1ulv10092.1.2 kV=0.2080002494301389 Vminpu=0.8 Vmaxpu=1.2 model=1 kW=10.52003 kvar=0.6100756371530351 Phases=2

New Load.load_p1ulv10093 conn=wye bus1=p1ulv10093.1.2 kV=0.2080002494301389 Vminpu=0.8 Vmaxpu=1.2 model=1 kW=1.38001 kvar=0.28022298226153225 Phases=2

New Load.load_p1ulv10094 conn=wye bus1=p1ulv10094.1.2 kV=0.2080002494301389 Vminpu=0.8 Vmaxpu=1.2 model=1 kW=2.7800300000000004 kvar=0.5601303263507202 Phases=2

New Load.load_p1ulv10095 conn=wye bus1=p1ulv10095.1.2 kV=0.2080002494301389 Vminpu=0.8 Vmaxpu=1.2 model=1 kW=3.48003 kvar=0.71028378024263 Phases=2

New Load.load_p1ulv10096 conn=wye bus1=p1ulv10087.1.2 kV=0.2080002494301389 Vminpu=0.8 Vmaxpu=1.2 model=1 kW=33.94004 kvar=0.8000592452444024 Phases=2

New Load.load_p1ulv10097 conn=wye bus1=p1ulv10097.1.2 kV=0.2080002494301389 Vminpu=0.8 Vmaxpu=1.2 model=1 kW=2.83003 kvar=0.5702045040817287 Phases=2

New Load.load_p1ulv10098 conn=wye bus1=p1ulv10098.1.2 kV=0.2080002494301389 Vminpu=0.8 Vmaxpu=1.2 model=1 kW=19.24004 kvar=0.8609768434346036 Phases=2

New Load.load_p1ulv10099 conn=wye bus1=p1ulv10099.1.2 kV=0.2080002494301389 Vminpu=0.8 Vmaxpu=1.2 model=1 kW=9.75002 kvar=0.46040600660272657 Phases=2

New Load.load_p1ulv10100 conn=wye bus1=p1ulv10100.1.2 kV=0.2080002494301389 Vminpu=0.8 Vmaxpu=1.2 model=1 kW=10.37003 kvar=0.5797741681037358 Phases=2

New Load.load_p1ulv10101 conn=wye bus1=p1ulv10101.1.2 kV=0.2080002494301389 Vminpu=0.8 Vmaxpu=1.2 model=1 kW=1.7300200000000001 kvar=0.350389299430372 Phases=2

New Load.load_p1ulv10102 conn=wye bus1=p1ulv10102.1.2 kV=0.2080002494301389 Vminpu=0.8 Vmaxpu=1.2 model=1 kW=11.1501 kvar=2.2582835617961585 Phases=2

New Load.load_p1ulv10103 conn=wye bus1=p1ulv10103.1.2 kV=0.2080002494301389 Vminpu=0.8 Vmaxpu=1.2 model=1 kW=1.7300200000000001 kvar=0.350389299430372 Phases=2

New Load.load_p1ulv10104 conn=wye bus1=p1ulv10104.1.2 kV=0.2080002494301389 Vminpu=0.8 Vmaxpu=1.2 model=1 kW=10.58003 kvar=0.6302452033833459 Phases=2

New Load.load_p1ulv10105 conn=wye bus1=p1ulv10105.1.2.3 kV=0.48 Vminpu=0.8 Vmaxpu=1.2 model=1 kW=130.40100000000004 kvar=26.479052405334798 Phases=3

New Load.load_p1ulv10106 conn=wye bus1=p1ulv10106.1.2 kV=0.2080002494301389 Vminpu=0.8 Vmaxpu=1.2 model=1 kW=10.31003 kvar=0.570600928141371 Phases=2

New Load.load_p1ulv10107 conn=wye bus1=p1ulv10107.1.2.3 kV=0.48 Vminpu=0.8 Vmaxpu=1.2 model=1 kW=45.97050000000001 kvar=9.334708158675497 Phases=3

New Load.load_p1ulv10108 conn=wye bus1=p1ulv10108.1.2 kV=0.2080002494301389 Vminpu=0.8 Vmaxpu=1.2 model=1 kW=25.860030000000002 kvar=0.6805230909267135 Phases=2

New Load.load_p1ulv10109 conn=wye bus1=p1ulv10109.1.2.3 kV=0.48 Vminpu=0.8 Vmaxpu=1.2 model=1 kW=217.582 kvar=44.18190949806792 Phases=3

New Load.load_p1ulv10110 conn=wye bus1=p1ulv10110.1.2 kV=0.2080002494301389 Vminpu=0.8 Vmaxpu=1.2 model=1 kW=35.55006 kvar=1.1298884703894267 Phases=2

New Load.load_p1ulv11935 conn=wye bus1=p1ulv11935.1.2 kV=0.2080002494301389 Vminpu=0.8 Vmaxpu=1.2 model=1 kW=1.53002 kvar=0.309882334258828 Phases=2

New Load.load_p1ulv24155 conn=wye bus1=p1ulv24155.1.2 kV=0.2080002494301389 Vminpu=0.8 Vmaxpu=1.2 model=1 kW=1.7300200000000001 kvar=0.350389299430372 Phases=2

New Load.load_p1ulv24156 conn=wye bus1=p1ulv24156.1.2 kV=0.2080002494301389 Vminpu=0.8 Vmaxpu=1.2 model=1 kW=1.38001 kvar=0.28022298226153225 Phases=2

New Load.load_p1ulv24157 conn=wye bus1=p1ulv24157.1.2 kV=0.2080002494301389 Vminpu=0.8 Vmaxpu=1.2 model=1 kW=1.69002 kvar=0.33961982674506697 Phases=2

New Load.load_p1ulv24158 conn=wye bus1=p1ulv24158.1.2 kV=0.2080002494301389 Vminpu=0.8 Vmaxpu=1.2 model=1 kW=1.42001 kvar=0.2898279815927842 Phases=2

New Load.load_p1ulv24159 conn=wye bus1=p1ulv24159.1.2 kV=0.2080002494301389 Vminpu=0.8 Vmaxpu=1.2 model=1 kW=1.90002 kvar=0.3897743018115738 Phases=2

New Load.load_p1ulv24160 conn=wye bus1=p1ulv24160.1.2 kV=0.2080002494301389 Vminpu=0.8 Vmaxpu=1.2 model=1 kW=1.38001 kvar=0.28022298226153225 Phases=2

New Load.load_p1ulv24161 conn=wye bus1=p1ulv24161.1.2 kV=0.2080002494301389 Vminpu=0.8 Vmaxpu=1.2 model=1 kW=1.38001 kvar=0.28022298226153225 Phases=2

New Load.load_p1ulv24162 conn=wye bus1=p1ulv24162.1.2 kV=0.2080002494301389 Vminpu=0.8 Vmaxpu=1.2 model=1 kW=9.36002 kvar=0.37963524364068607 Phases=2

New Load.load_p1ulv26040 conn=wye bus1=p1ulv26040.1.2 kV=0.2080002494301389 Vminpu=0.8 Vmaxpu=1.2 model=1 kW=1.38001 kvar=0.28022298226153225 Phases=2

New Load.load_p1ulv26045 conn=wye bus1=p1ulv26045.1.2 kV=0.2080002494301389 Vminpu=0.8 Vmaxpu=1.2 model=1 kW=10.76003 kvar=0.6602696083409414 Phases=2

New Load.load_p1ulv26058 conn=wye bus1=p1ulv26058.1.2 kV=0.2080002494301389 Vminpu=0.8 Vmaxpu=1.2 model=1 kW=2.60003 kvar=0.5306733382023273 Phases=2

New Load.load_p1ulv26079 conn=wye bus1=p1ulv26079.1.2 kV=0.2080002494301389 Vminpu=0.8 Vmaxpu=1.2 model=1 kW=2.28002 kvar=0.46058636974522216 Phases=2

New Load.load_p1ulv26105 conn=wye bus1=p1ulv26105.1.2 kV=0.2080002494301389 Vminpu=0.8 Vmaxpu=1.2 model=1 kW=3.23003 kvar=0.6592580864811803 Phases=2

New Load.load_p1ulv26108 conn=wye bus1=p1ulv26108.1.2 kV=0.2080002494301389 Vminpu=0.8 Vmaxpu=1.2 model=1 kW=2.99003 kvar=0.6102734204701886 Phases=2

New Load.load_p1ulv26119 conn=wye bus1=p1ulv26119.1.2.3 kV=0.48 Vminpu=0.8 Vmaxpu=1.2 model=1 kW=40.3904 kvar=8.201620526471688 Phases=3

New Load.load_p1ulv26134 conn=wye bus1=p1ulv26134.1.2 kV=0.2080002494301389 Vminpu=0.8 Vmaxpu=1.2 model=1 kW=2.94003 kvar=0.6000682817178988 Phases=2

New Load.load_p1ulv26137 conn=wye bus1=p1ulv26137.1.2 kV=0.2080002494301389 Vminpu=0.8 Vmaxpu=1.2 model=1 kW=14.9101 kvar=3.0276249359190675 Phases=2

New Load.load_p1ulv26155 conn=wye bus1=p1ulv26155.1.2 kV=0.2080002494301389 Vminpu=0.8 Vmaxpu=1.2 model=1 kW=11.19004 kvar=0.7492945800859013 Phases=2

New Load.load_p1ulv26172 conn=wye bus1=p1ulv26172.1.2 kV=0.2080002494301389 Vminpu=0.8 Vmaxpu=1.2 model=1 kW=3.23003 kvar=0.6592580864811803 Phases=2

New Load.load_p1ulv26210 conn=wye bus1=p1ulv26210.1.2 kV=0.2080002494301389 Vminpu=0.8 Vmaxpu=1.2 model=1 kW=3.78004 kvar=0.7695454848435601 Phases=2

New Load.load_p1ulv26215 conn=wye bus1=p1ulv26215.1.2 kV=0.2080002494301389 Vminpu=0.8 Vmaxpu=1.2 model=1 kW=3.61004 kvar=0.7292634355115489 Phases=2

New Load.load_p1ulv26241 conn=wye bus1=p1ulv26241.1.2 kV=0.2080002494301389 Vminpu=0.8 Vmaxpu=1.2 model=1 kW=3.89004 kvar=0.789906312212702 Phases=2

New Load.load_p1ulv26246 conn=wye bus1=p1ulv26246.1.2 kV=0.2080002494301389 Vminpu=0.8 Vmaxpu=1.2 model=1 kW=10.67003 kvar=0.6403771062023346 Phases=2

New Load.load_p1ulv26271 conn=wye bus1=p1ulv26271.1.2 kV=0.2080002494301389 Vminpu=0.8 Vmaxpu=1.2 model=1 kW=11.46004 kvar=0.7999668632932473 Phases=2

New Load.load_p1ulv26277 conn=wye bus1=p1ulv26277.1.2 kV=0.2080002494301389 Vminpu=0.8 Vmaxpu=1.2 model=1 kW=18.55004 kvar=0.7208663675971405 Phases=2

New Load.load_p1ulv26279 conn=wye bus1=p1ulv26279.1.2 kV=0.2080002494301389 Vminpu=0.8 Vmaxpu=1.2 model=1 kW=19.06004 kvar=0.8201678426594468 Phases=2

New Load.load_p1ulv26304 conn=wye bus1=p1ulv26304.1.2 kV=0.2080002494301389 Vminpu=0.8 Vmaxpu=1.2 model=1 kW=10.99003 kvar=0.7105048699136965 Phases=2

New Load.load_p1ulv26345 conn=wye bus1=p1ulv26345.1.2 kV=0.2080002494301389 Vminpu=0.8 Vmaxpu=1.2 model=1 kW=10.77003 kvar=0.660578085568534 Phases=2

New Load.load_p1ulv26380 conn=wye bus1=p1ulv26380.1.2 kV=0.2080002494301389 Vminpu=0.8 Vmaxpu=1.2 model=1 kW=3.62004 kvar=0.7407437090079797 Phases=2

New Load.load_p1ulv26385 conn=wye bus1=p1ulv26385.1.2 kV=0.2080002494301389 Vminpu=0.8 Vmaxpu=1.2 model=1 kW=3.20003 kvar=0.6497938057886328 Phases=2

New Load.load_p1ulv26409 conn=wye bus1=p1ulv26409.1.2 kV=0.2080002494301389 Vminpu=0.8 Vmaxpu=1.2 model=1 kW=3.04003 kvar=0.6204785592224786 Phases=2

New Load.load_p1ulv26439 conn=wye bus1=p1ulv26439.1.2 kV=0.2080002494301389 Vminpu=0.8 Vmaxpu=1.2 model=1 kW=2.92003 kvar=0.5898746577868357 Phases=2

New Load.load_p1ulv26454 conn=wye bus1=p1ulv26454.1.2 kV=0.2080002494301389 Vminpu=0.8 Vmaxpu=1.2 model=1 kW=18.77004 kvar=0.7596010602602379 Phases=2
