New Line.l(r:p1ulv3823-udt1804lv) Units=km Length=0.0343779 bus1=udt1804lv.1.2 bus2=p1ulv3823.1.2 switch=n enabled=y phases=2 Linecode=1P_UG_AL_1/0_Brenau_0_416_0_2_2

New Line.l(r:p1ulv3824-udm7086) Units=km Length=0.0346349 bus1=udm7086.1.2 bus2=p1ulv3824.1.2 switch=n enabled=y phases=2 Linecode=1P_UG_AL_1/0_Brenau_0_416_0_2_2

New Line.l(r:p1ulv3825-udm7087) Units=km Length=0.0347995 bus1=udm7087.1.2 bus2=p1ulv3825.1.2 switch=n enabled=y phases=2 Linecode=1P_UG_AL_1/0_Brenau_0_416_0_2_2

New Line.l(r:udm7086-udm7087) Units=km Length=0.00975828 bus1=udm7086.1.2 bus2=udm7087.1.2 switch=n enabled=y phases=2 Linecode=1P_UG_AL_1/0_Brenau_0_416_0_2_2

New Line.l(r:udm7086-udt1804lv) Units=km Length=0.00976721 bus1=udt1804lv.1.2 bus2=udm7086.1.2 switch=n enabled=y phases=2 Linecode=1P_UG_AL_2/0_Converse_0_416_0_2_2

New Line.l(r:p1ulv3827-udm7088) Units=km Length=0.0211382 bus1=udm7088.1.2 bus2=p1ulv3827.1.2 switch=n enabled=y phases=2 Linecode=1P_UG_AL_1/0_Brenau_0_416_0_2_2

New Line.l(r:p1ulv3828-udm7088) Units=km Length=0.0136765 bus1=udm7088.1.2 bus2=p1ulv3828.1.2 switch=n enabled=y phases=2 Linecode=1P_UG_AL_1/0_Brenau_0_416_0_2_2

New Line.l(r:p1ulv3829-udm7090) Units=km Length=0.0280501 bus1=udm7090.1.2 bus2=p1ulv3829.1.2 switch=n enabled=y phases=2 Linecode=1P_UG_AL_1/0_Brenau_0_416_0_2_2

New Line.l(r:udm7088-udm7090) Units=km Length=0.00976721 bus1=udm7088.1.2 bus2=udm7090.1.2 switch=n enabled=y phases=2 Linecode=1P_UG_AL_1/0_Brenau_0_416_0_2_2

New Line.l(r:udm7088-udt1804lv) Units=km Length=0.0195344 bus1=udt1804lv.1.2 bus2=udm7088.1.2 switch=n enabled=y phases=2 Linecode=1P_UG_AL_2/0_Converse_0_416_0_2_2

New Line.l(r:p1ulv3831-udt1805lv) Units=km Length=0.0233455 bus1=udt1805lv.1.2 bus2=p1ulv3831.1.2 switch=n enabled=y phases=2 Linecode=1P_UG_AL_1/0_Brenau_0_416_0_2_2

New Line.l(r:p1ulv3830-udm7091) Units=km Length=0.0299087 bus1=udm7091.1.2 bus2=p1ulv3830.1.2 switch=n enabled=y phases=2 Linecode=1P_UG_AL_1/0_Brenau_0_416_0_2_2

New Line.l(r:udm7091-udt1805lv) Units=km Length=0.00976721 bus1=udt1805lv.1.2 bus2=udm7091.1.2 switch=n enabled=y phases=2 Linecode=1P_UG_AL_1/0_Brenau_0_416_0_2_2

New Line.l(r:p1ulv3832-udm7093) Units=km Length=0.016886 bus1=udm7093.1.2 bus2=p1ulv3832.1.2 switch=n enabled=y phases=2 Linecode=1P_UG_AL_1/0_Brenau_0_416_0_2_2

New Line.l(r:udm7093-udt1805lv) Units=km Length=0.00976721 bus1=udt1805lv.1.2 bus2=udm7093.1.2 switch=n enabled=y phases=2 Linecode=1P_UG_AL_1/0_Brenau_0_416_0_2_2

New Line.l(r:p1ulv3837-udt1806lv) Units=km Length=0.0121285 bus1=udt1806lv.1.2 bus2=p1ulv3837.1.2 switch=n enabled=y phases=2 Linecode=1P_UG_AL_1/0_Brenau_0_416_0_2_2

New Line.l(r:p1ulv3834-udm7095) Units=km Length=0.012488100000000002 bus1=udm7095.1.2 bus2=p1ulv3834.1.2 switch=n enabled=y phases=2 Linecode=1P_UG_AL_1/0_Brenau_0_416_0_2_2

New Line.l(r:p1ulv3833-udm7094) Units=km Length=0.0127649 bus1=udm7094.1.2 bus2=p1ulv3833.1.2 switch=n enabled=y phases=2 Linecode=1P_UG_AL_1/0_Brenau_0_416_0_2_2

New Line.l(r:udm7094-udm7095) Units=km Length=0.009218180000000001 bus1=udm7095.1.2 bus2=udm7094.1.2 switch=n enabled=y phases=2 Linecode=1P_UG_AL_1/0_Brenau_0_416_0_2_2

New Line.l(r:udm7095-udt1806lv) Units=km Length=0.00923167 bus1=udt1806lv.1.2 bus2=udm7095.1.2 switch=n enabled=y phases=2 Linecode=1P_UG_AL_1/0_Brenau_0_416_0_2_2

New Line.l(r:p1ulv38038-udm7097) Units=km Length=0.028433400000000005 bus1=udm7097.1.2 bus2=p1ulv38038.1.2 switch=n enabled=y phases=2 Linecode=1P_UG_AL_1/0_Brenau_0_416_0_2_2

New Line.l(r:udm7097-udt1806lv) Units=km Length=0.0184587 bus1=udt1806lv.1.2 bus2=udm7097.1.2 switch=n enabled=y phases=2 Linecode=1P_UG_AL_1/0_Brenau_0_416_0_2_2

New Line.l(r:p1ulv3840-udt1807lv) Units=km Length=0.0165043 bus1=udt1807lv.1.2 bus2=p1ulv3840.1.2 switch=n enabled=y phases=2 Linecode=1P_UG_AL_1/0_Brenau_0_416_0_2_2

New Line.l(r:p1ulv3839-udm7101) Units=km Length=0.013032200000000002 bus1=udm7101.1.2 bus2=p1ulv3839.1.2 switch=n enabled=y phases=2 Linecode=1P_UG_AL_1/0_Brenau_0_416_0_2_2

New Line.l(r:p1ulv3921-udm7101) Units=km Length=0.0288622 bus1=udm7101.1.2 bus2=p1ulv3921.1.2 switch=n enabled=y phases=2 Linecode=1P_UG_AL_1/0_Brenau_0_416_0_2_2

New Line.l(r:p1ulv3922-udm7101) Units=km Length=0.037405 bus1=udm7101.1.2 bus2=p1ulv3922.1.2 switch=n enabled=y phases=2 Linecode=1P_UG_AL_1/0_Brenau_0_416_0_2_2

New Line.l(r:p1ulv3925-udm7101) Units=km Length=0.0150842 bus1=udm7101.1.2 bus2=p1ulv3925.1.2 switch=n enabled=y phases=2 Linecode=1P_UG_AL_1/0_Brenau_0_416_0_2_2

New Line.l(r:p1ulv3838-udm7100) Units=km Length=0.0134809 bus1=udm7100.1.2 bus2=p1ulv3838.1.2 switch=n enabled=y phases=2 Linecode=1P_UG_AL_1/0_Brenau_0_416_0_2_2

New Line.l(r:p1ulv3924-udm7100) Units=km Length=0.0204778 bus1=udm7100.1.2 bus2=p1ulv3924.1.2 switch=n enabled=y phases=2 Linecode=1P_UG_AL_1/0_Brenau_0_416_0_2_2

New Line.l(r:udm7100-udm7101) Units=km Length=0.00958856 bus1=udm7101.1.2 bus2=udm7100.1.2 switch=n enabled=y phases=2 Linecode=1P_UG_AL_1/0_Brenau_0_416_0_2_2

New Line.l(r:udm7101-udt1807lv) Units=km Length=0.00958856 bus1=udt1807lv.1.2 bus2=udm7101.1.2 switch=n enabled=y phases=2 Linecode=1P_UG_AL_4/0_Sweetbriar_0_416_0_2_2

New Line.l(r:p1ulv3923-udm7106) Units=km Length=0.0150903 bus1=udm7106.1.2 bus2=p1ulv3923.1.2 switch=n enabled=y phases=2 Linecode=1P_UG_AL_1/0_Brenau_0_416_0_2_2

New Line.l(r:p1ulv3835-udm7098) Units=km Length=0.0147109 bus1=udm7098.1.2 bus2=p1ulv3835.1.2 switch=n enabled=y phases=2 Linecode=1P_UG_AL_1/0_Brenau_0_416_0_2_2

New Line.l(r:p1ulv3852-udm7098) Units=km Length=0.021998200000000002 bus1=udm7098.1.2 bus2=p1ulv3852.1.2 switch=n enabled=y phases=2 Linecode=1P_UG_AL_1/0_Brenau_0_416_0_2_2

New Line.l(r:p1ulv3836-udm7099) Units=km Length=0.014828600000000003 bus1=udm7099.1.2 bus2=p1ulv3836.1.2 switch=n enabled=y phases=2 Linecode=1P_UG_AL_1/0_Brenau_0_416_0_2_2

New Line.l(r:udm7098-udm7099) Units=km Length=0.00958856 bus1=udm7098.1.2 bus2=udm7099.1.2 switch=n enabled=y phases=2 Linecode=1P_UG_AL_1/0_Brenau_0_416_0_2_2

New Line.l(r:udm7098-udm7106) Units=km Length=0.00959297 bus1=udm7106.1.2 bus2=udm7098.1.2 switch=n enabled=y phases=2 Linecode=1P_UG_AL_1/0_Brenau_0_416_0_2_2

New Line.l(r:udm7106-udt1807lv) Units=km Length=0.00957958 bus1=udt1807lv.1.2 bus2=udm7106.1.2 switch=n enabled=y phases=2 Linecode=1P_UG_AL_4/0_Sweetbriar_0_416_0_2_2

New Line.l(r:p1ulv3842-udm7109) Units=km Length=0.0221284 bus1=udm7109.1.2 bus2=p1ulv3842.1.2 switch=n enabled=y phases=2 Linecode=1P_UG_AL_1/0_Brenau_0_416_0_2_2

New Line.l(r:p1ulv3843-udm7109) Units=km Length=0.0290869 bus1=udm7109.1.2 bus2=p1ulv3843.1.2 switch=n enabled=y phases=2 Linecode=1P_UG_AL_1/0_Brenau_0_416_0_2_2

New Line.l(r:p1ulv3844-udm7109) Units=km Length=0.03662340000000001 bus1=udm7109.1.2 bus2=p1ulv3844.1.2 switch=n enabled=y phases=2 Linecode=1P_UG_AL_1/0_Brenau_0_416_0_2_2

New Line.l(r:p1ulv3845-udm7112) Units=km Length=0.014697400000000001 bus1=udm7112.1.2 bus2=p1ulv3845.1.2 switch=n enabled=y phases=2 Linecode=1P_UG_AL_1/0_Brenau_0_416_0_2_2

New Line.l(r:udm7109-udm7112) Units=km Length=0.00976721 bus1=udm7109.1.2 bus2=udm7112.1.2 switch=n enabled=y phases=2 Linecode=1P_UG_AL_1/0_Brenau_0_416_0_2_2

New Line.l(r:udm7109-udt1808lv) Units=km Length=0.00976721 bus1=udt1808lv.1.2 bus2=udm7109.1.2 switch=n enabled=y phases=2 Linecode=1P_UG_AL_4/0_Sweetbriar_0_416_0_2_2

New Line.l(r:p1ulv3869-udm7114) Units=km Length=0.0519543 bus1=udm7114.1.2 bus2=p1ulv3869.1.2 switch=n enabled=y phases=2 Linecode=1P_UG_AL_1/0_Brenau_0_416_0_2_2

New Line.l(r:p1ulv3868-udm7113) Units=km Length=0.0518635 bus1=udm7113.1.2 bus2=p1ulv3868.1.2 switch=n enabled=y phases=2 Linecode=1P_UG_AL_1/0_Brenau_0_416_0_2_2

New Line.l(r:p1ulv3889-udm7115) Units=km Length=0.0375783 bus1=udm7115.1.2 bus2=p1ulv3889.1.2 switch=n enabled=y phases=2 Linecode=1P_UG_AL_1/0_Brenau_0_416_0_2_2

New Line.l(r:udm7113-udm7115) Units=km Length=0.00976721 bus1=udm7113.1.2 bus2=udm7115.1.2 switch=n enabled=y phases=2 Linecode=1P_UG_AL_1/0_Brenau_0_416_0_2_2

New Line.l(r:udm7113-udm7114) Units=km Length=0.00976721 bus1=udm7114.1.2 bus2=udm7113.1.2 switch=n enabled=y phases=2 Linecode=1P_UG_AL_1/0_Brenau_0_416_0_2_2

New Line.l(r:udm7114-udt1808lv) Units=km Length=0.00976721 bus1=udt1808lv.1.2 bus2=udm7114.1.2 switch=n enabled=y phases=2 Linecode=1P_UG_AL_2/0_Converse_0_416_0_2_2

New Line.l(r:p1ulv3848-udt1809lv) Units=km Length=0.0280206 bus1=udt1809lv.1.2 bus2=p1ulv3848.1.2 switch=n enabled=y phases=2 Linecode=1P_UG_AL_1/0_Brenau_0_416_0_2_2

New Line.l(r:p1ulv3851-udt1809lv) Units=km Length=0.0193789 bus1=udt1809lv.1.2 bus2=p1ulv3851.1.2 switch=n enabled=y phases=2 Linecode=1P_UG_AL_1/0_Brenau_0_416_0_2_2

New Line.l(r:p1ulv3847-udm7116) Units=km Length=0.0141424 bus1=udm7116.1.2 bus2=p1ulv3847.1.2 switch=n enabled=y phases=2 Linecode=1P_UG_AL_1/0_Brenau_0_416_0_2_2

New Line.l(r:udm7116-udt1809lv) Units=km Length=0.00976721 bus1=udt1809lv.1.2 bus2=udm7116.1.2 switch=n enabled=y phases=2 Linecode=1P_UG_AL_1/0_Brenau_0_416_0_2_2

New Line.l(r:p1ulv3849-udm7118) Units=km Length=0.0370853 bus1=udm7118.1.2 bus2=p1ulv3849.1.2 switch=n enabled=y phases=2 Linecode=1P_UG_AL_1/0_Brenau_0_416_0_2_2

New Line.l(r:p1ulv3926-udm7118) Units=km Length=0.0525474 bus1=udm7118.1.2 bus2=p1ulv3926.1.2 switch=n enabled=y phases=2 Linecode=1P_UG_AL_1/0_Brenau_0_416_0_2_2

New Line.l(r:p1ulv3927-udm7121) Units=km Length=0.0526274 bus1=udm7121.1.2 bus2=p1ulv3927.1.2 switch=n enabled=y phases=2 Linecode=1P_UG_AL_1/0_Brenau_0_416_0_2_2

New Line.l(r:udm7118-udm7121) Units=km Length=0.00976721 bus1=udm7118.1.2 bus2=udm7121.1.2 switch=n enabled=y phases=2 Linecode=1P_UG_AL_1/0_Brenau_0_416_0_2_2

New Line.l(r:udm7118-udt1809lv) Units=km Length=0.00976721 bus1=udt1809lv.1.2 bus2=udm7118.1.2 switch=n enabled=y phases=2 Linecode=1P_UG_AL_2/0_Converse_0_416_0_2_2

New Line.l(r:p1ulv3929-udt1810lv) Units=km Length=0.0400667 bus1=udt1810lv.1.2 bus2=p1ulv3929.1.2 switch=n enabled=y phases=2 Linecode=1P_UG_AL_1/0_Brenau_0_416_0_2_2

New Line.l(r:p1ulv3857-udm7126) Units=km Length=0.0123491 bus1=udm7126.1.2 bus2=p1ulv3857.1.2 switch=n enabled=y phases=2 Linecode=1P_UG_AL_1/0_Brenau_0_416_0_2_2

New Line.l(r:p1ulv3856-udm7125) Units=km Length=0.0128006 bus1=udm7125.1.2 bus2=p1ulv3856.1.2 switch=n enabled=y phases=2 Linecode=1P_UG_AL_1/0_Brenau_0_416_0_2_2

New Line.l(r:p1ulv3855-udm7124) Units=km Length=0.013156800000000001 bus1=udm7124.1.2 bus2=p1ulv3855.1.2 switch=n enabled=y phases=2 Linecode=1P_UG_AL_1/0_Brenau_0_416_0_2_2

New Line.l(r:p1ulv3854-udm7123) Units=km Length=0.0129296 bus1=udm7123.1.2 bus2=p1ulv3854.1.2 switch=n enabled=y phases=2 Linecode=1P_UG_AL_1/0_Brenau_0_416_0_2_2

New Line.l(r:p1ulv3853-udm7122) Units=km Length=0.019 bus1=udm7122.1.2 bus2=p1ulv3853.1.2 switch=n enabled=y phases=2 Linecode=1P_UG_AL_1/0_Brenau_0_416_0_2_2

New Line.l(r:udm7122-udm7123) Units=km Length=0.00983401 bus1=udm7123.1.2 bus2=udm7122.1.2 switch=n enabled=y phases=2 Linecode=1P_UG_AL_1/0_Brenau_0_416_0_2_2

New Line.l(r:udm7123-udm7124) Units=km Length=0.00983268 bus1=udm7124.1.2 bus2=udm7123.1.2 switch=n enabled=y phases=2 Linecode=1P_UG_AL_1/0_Brenau_0_416_0_2_2

New Line.l(r:udm7124-udm7125) Units=km Length=0.00983268 bus1=udm7125.1.2 bus2=udm7124.1.2 switch=n enabled=y phases=2 Linecode=1P_UG_AL_1/0_Brenau_0_416_0_2_2

New Line.l(r:udm7125-udm7126) Units=km Length=0.00982866 bus1=udm7126.1.2 bus2=udm7125.1.2 switch=n enabled=y phases=2 Linecode=1P_UG_AL_2/0_Converse_0_416_0_2_2

New Line.l(r:udm7126-udt1810lv) Units=km Length=0.00984183 bus1=udt1810lv.1.2 bus2=udm7126.1.2 switch=n enabled=y phases=2 Linecode=1P_UG_AL_4/0_Sweetbriar_0_416_0_2_2

New Line.l(r:p1ulv3858-udm7127) Units=km Length=0.0113265 bus1=udm7127.1.2 bus2=p1ulv3858.1.2 switch=n enabled=y phases=2 Linecode=1P_UG_AL_1/0_Brenau_0_416_0_2_2

New Line.l(r:p1ulv3928-udm7127) Units=km Length=0.0466663 bus1=udm7127.1.2 bus2=p1ulv3928.1.2 switch=n enabled=y phases=2 Linecode=1P_UG_AL_1/0_Brenau_0_416_0_2_2

New Line.l(r:p1ulv3860-udm7128) Units=km Length=0.011448500000000002 bus1=udm7128.1.2 bus2=p1ulv3860.1.2 switch=n enabled=y phases=2 Linecode=1P_UG_AL_1/0_Brenau_0_416_0_2_2

New Line.l(r:p1ulv3861-udm7128) Units=km Length=0.0126158 bus1=udm7128.1.2 bus2=p1ulv3861.1.2 switch=n enabled=y phases=2 Linecode=1P_UG_AL_1/0_Brenau_0_416_0_2_2

New Line.l(r:p1ulv3931-udm7132) Units=km Length=0.0157345 bus1=udm7132.1.2 bus2=p1ulv3931.1.2 switch=n enabled=y phases=2 Linecode=1P_UG_AL_1/0_Brenau_0_416_0_2_2

New Line.l(r:udm7128-udm7132) Units=km Length=0.05633450000000001 bus1=udm7128.1.2 bus2=udm7132.1.2 switch=n enabled=y phases=2 Linecode=1P_UG_AL_1/0_Brenau_0_416_0_2_2

New Line.l(r:udm7127-udm7128) Units=km Length=0.00983268 bus1=udm7127.1.2 bus2=udm7128.1.2 switch=n enabled=y phases=2 Linecode=1P_UG_AL_2/0_Converse_0_416_0_2_2

New Line.l(r:udm7127-udt1810lv) Units=km Length=0.00982866 bus1=udt1810lv.1.2 bus2=udm7127.1.2 switch=n enabled=y phases=2 Linecode=1P_UG_AL_4/0_Sweetbriar_0_416_0_2_2

New Line.l(r:p1ulv4330-udm7720) Units=km Length=0.0240982 bus1=udm7720.1.2 bus2=p1ulv4330.1.2 switch=n enabled=y phases=2 Linecode=1P_UG_AL_1/0_Brenau_0_416_0_2_2

New Line.l(r:udm7720-udt1924lv) Units=km Length=0.00971908 bus1=udt1924lv.1.2 bus2=udm7720.1.2 switch=n enabled=y phases=2 Linecode=1P_UG_AL_1/0_Brenau_0_416_0_2_2

New Line.l(r:p1ulv42218-udm7721) Units=km Length=0.0258602 bus1=udm7721.1.2 bus2=p1ulv42218.1.2 switch=n enabled=y phases=2 Linecode=1P_UG_AL_1/0_Brenau_0_416_0_2_2

New Line.l(r:udm7721-udt1924lv) Units=km Length=0.00972864 bus1=udt1924lv.1.2 bus2=udm7721.1.2 switch=n enabled=y phases=2 Linecode=1P_UG_AL_1/0_Brenau_0_416_0_2_2

New Line.l(r:p1ulv4333-udt1927lv) Units=km Length=0.025678000000000003 bus1=udt1927lv.1.2 bus2=p1ulv4333.1.2 switch=n enabled=y phases=2 Linecode=1P_OH_AL_2/0_Rucina_0_416_0_2_2

New Line.l(r:p1ulv44510-udm7730) Units=km Length=0.0186067 bus1=udm7730.1.2 bus2=p1ulv44510.1.2 switch=n enabled=y phases=2 Linecode=1P_UG_AL_1/0_Brenau_0_416_0_2_2

New Line.l(r:udm7730-udt1927lv) Units=km Length=0.0754309 bus1=udt1927lv.1.2 bus2=udm7730.1.2 switch=n enabled=y phases=2 Linecode=1P_OH_AL_4/0_Zuzara_0_416_0_2_2

New Line.l(r:p1ulv50415-udm7731) Units=km Length=0.0223899 bus1=udm7731.1.2 bus2=p1ulv50415.1.2 switch=n enabled=y phases=2 Linecode=1P_OH_AL_2/0_Rucina_0_416_0_2_2

New Line.l(r:udm7731-udt1927lv) Units=km Length=0.0197845 bus1=udt1927lv.1.2 bus2=udm7731.1.2 switch=n enabled=y phases=2 Linecode=1P_OH_AL_2/0_Rucina_0_416_0_2_2

New Line.l(r:p1ulv4335-udt1929lv) Units=km Length=0.0100717 bus1=udt1929lv.1.2 bus2=p1ulv4335.1.2 switch=n enabled=y phases=2 Linecode=1P_OH_AL_2/0_Rucina_0_416_0_2_2

New Line.l(r:p1ulv5262-udt2394lv) Units=km Length=0.0199306 bus1=udt2394lv.1.2 bus2=p1ulv5262.1.2 switch=n enabled=y phases=2 Linecode=1P_UG_AL_1/0_Brenau_0_416_0_2_2

New Line.l(r:p1ulv5260-udm9586) Units=km Length=0.0170221 bus1=udm9586.1.2 bus2=p1ulv5260.1.2 switch=n enabled=y phases=2 Linecode=1P_UG_AL_1/0_Brenau_0_416_0_2_2

New Line.l(r:p1ulv5261-udm9586) Units=km Length=0.0211397 bus1=udm9586.1.2 bus2=p1ulv5261.1.2 switch=n enabled=y phases=2 Linecode=1P_UG_AL_1/0_Brenau_0_416_0_2_2

New Line.l(r:p1ulv5258-udm9584) Units=km Length=0.00614099 bus1=udm9584.1.2 bus2=p1ulv5258.1.2 switch=n enabled=y phases=2 Linecode=1P_UG_AL_1/0_Brenau_0_416_0_2_2

New Line.l(r:p1ulv5256-udm9583) Units=km Length=0.00525681 bus1=udm9583.1.2 bus2=p1ulv5256.1.2 switch=n enabled=y phases=2 Linecode=1P_UG_AL_1/0_Brenau_0_416_0_2_2

New Line.l(r:p1ulv5255-udm9582) Units=km Length=0.00180314 bus1=udm9582.1.2 bus2=p1ulv5255.1.2 switch=n enabled=y phases=2 Linecode=1P_UG_AL_1/0_Brenau_0_416_0_2_2

New Line.l(r:p1ulv5259-udm9582) Units=km Length=0.016021 bus1=udm9582.1.2 bus2=p1ulv5259.1.2 switch=n enabled=y phases=2 Linecode=1P_UG_AL_1/0_Brenau_0_416_0_2_2

New Line.l(r:udm9582-udm9583) Units=km Length=0.0096097 bus1=udm9583.1.2 bus2=udm9582.1.2 switch=n enabled=y phases=2 Linecode=1P_UG_AL_1/0_Brenau_0_416_0_2_2

New Line.l(r:udm9583-udm9584) Units=km Length=0.0096097 bus1=udm9584.1.2 bus2=udm9583.1.2 switch=n enabled=y phases=2 Linecode=1P_UG_AL_4/0_Sweetbriar_0_416_0_2_2

New Line.l(r:udm9584-udm9586) Units=km Length=0.014978300000000002 bus1=udm9586.1.2 bus2=udm9584.1.2 switch=n enabled=y phases=2 Linecode=1P_UG_AL_4/0_Sweetbriar_0_416_0_2_2

New Line.l(r:udm9586-udt2394lv) Units=km Length=0.00737625 bus1=udt2394lv.1.2 bus2=udm9586.1.2 switch=n enabled=y phases=2 Linecode=1P_UG_AL_4/0_Sweetbriar_0_416_0_2_2

New Line.l(r:p1ulv5263-udm9589) Units=km Length=0.0146679 bus1=udm9589.1.2 bus2=p1ulv5263.1.2 switch=n enabled=y phases=2 Linecode=1P_UG_AL_1/0_Brenau_0_416_0_2_2

New Line.l(r:p1ulv5271-udm9591) Units=km Length=0.0163016 bus1=udm9591.1.2 bus2=p1ulv5271.1.2 switch=n enabled=y phases=2 Linecode=1P_OH_AL_2/0_Rucina_0_416_0_2_2

New Line.l(r:p1ulv5270-udm9590) Units=km Length=0.015226400000000001 bus1=udm9590.1.2 bus2=p1ulv5270.1.2 switch=n enabled=y phases=2 Linecode=1P_OH_AL_2/0_Rucina_0_416_0_2_2

New Line.l(r:udm9590-udm9591) Units=km Length=0.0118313 bus1=udm9591.1.2 bus2=udm9590.1.2 switch=n enabled=y phases=2 Linecode=1P_OH_AL_2/0_Rucina_0_416_0_2_2

New Line.l(r:udm9589-udm9591) Units=km Length=0.0175326 bus1=udm9589.1.2 bus2=udm9591.1.2 switch=n enabled=y phases=2 Linecode=1P_OH_AL_2/0_Rucina_0_416_0_2_2

New Line.l(r:udm9589-udt2394lv) Units=km Length=0.00736915 bus1=udt2394lv.1.2 bus2=udm9589.1.2 switch=n enabled=y phases=2 Linecode=1P_UG_AL_4/0_Sweetbriar_0_416_0_2_2

New Line.l(r:p1ulv5266-udm9592) Units=km Length=0.0139295 bus1=udm9592.1.2 bus2=p1ulv5266.1.2 switch=n enabled=y phases=2 Linecode=1P_OH_AL_2/0_Rucina_0_416_0_2_2

New Line.l(r:p1ulv5267-udm9592) Units=km Length=0.0190482 bus1=udm9592.1.2 bus2=p1ulv5267.1.2 switch=n enabled=y phases=2 Linecode=1P_OH_AL_2/0_Rucina_0_416_0_2_2

New Line.l(r:p1ulv5268-udm9594) Units=km Length=0.0193815 bus1=udm9594.1.2 bus2=p1ulv5268.1.2 switch=n enabled=y phases=2 Linecode=1P_OH_AL_2/0_Rucina_0_416_0_2_2

New Line.l(r:p1ulv5269-udm9594) Units=km Length=0.0199934 bus1=udm9594.1.2 bus2=p1ulv5269.1.2 switch=n enabled=y phases=2 Linecode=1P_OH_AL_2/0_Rucina_0_416_0_2_2

New Line.l(r:udm9592-udm9594) Units=km Length=0.0130464 bus1=udm9592.1.2 bus2=udm9594.1.2 switch=n enabled=y phases=2 Linecode=1P_OH_AL_2/0_Rucina_0_416_0_2_2

New Line.l(r:udm9592-udt2395lv) Units=km Length=0.015211 bus1=udt2395lv.1.2 bus2=udm9592.1.2 switch=n enabled=y phases=2 Linecode=1P_OH_AL_2/0_Rucina_0_416_0_2_2

New Line.l(r:p1ulv5272-udm9596) Units=km Length=0.014291500000000002 bus1=udm9596.1.2 bus2=p1ulv5272.1.2 switch=n enabled=y phases=2 Linecode=1P_OH_AL_2/0_Rucina_0_416_0_2_2

New Line.l(r:p1ulv5274-udm9597) Units=km Length=0.013812 bus1=udm9597.1.2 bus2=p1ulv5274.1.2 switch=n enabled=y phases=2 Linecode=1P_OH_AL_2/0_Rucina_0_416_0_2_2

New Line.l(r:udm9596-udm9597) Units=km Length=0.0121472 bus1=udm9596.1.2 bus2=udm9597.1.2 switch=n enabled=y phases=2 Linecode=1P_OH_AL_2/0_Rucina_0_416_0_2_2

New Line.l(r:udm9596-udt2395lv) Units=km Length=0.0273554 bus1=udt2395lv.1.2 bus2=udm9596.1.2 switch=n enabled=y phases=2 Linecode=1P_OH_AL_4/0_Zuzara_0_416_0_2_2

New Line.l(r:p1ulv5277-udm9599) Units=km Length=0.00788762 bus1=udm9599.1.2 bus2=p1ulv5277.1.2 switch=n enabled=y phases=2 Linecode=1P_OH_AL_2/0_Rucina_0_416_0_2_2

New Line.l(r:p1ulv5279-udm9599) Units=km Length=0.011072500000000002 bus1=udm9599.1.2 bus2=p1ulv5279.1.2 switch=n enabled=y phases=2 Linecode=1P_OH_AL_2/0_Rucina_0_416_0_2_2

New Line.l(r:p1ulv5276-udm9598) Units=km Length=0.00784136 bus1=udm9598.1.2 bus2=p1ulv5276.1.2 switch=n enabled=y phases=2 Linecode=1P_OH_AL_2/0_Rucina_0_416_0_2_2

New Line.l(r:udm9598-udm9599) Units=km Length=0.0118247 bus1=udm9599.1.2 bus2=udm9598.1.2 switch=n enabled=y phases=2 Linecode=1P_OH_AL_2/0_Rucina_0_416_0_2_2

New Line.l(r:udm9599-udt2396lv) Units=km Length=0.0186828 bus1=udt2396lv.1.2 bus2=udm9599.1.2 switch=n enabled=y phases=2 Linecode=1P_OH_AL_2/0_Rucina_0_416_0_2_2

New Line.l(r:p1ulv5280-udm9601) Units=km Length=0.0148055 bus1=udm9601.1.2 bus2=p1ulv5280.1.2 switch=n enabled=y phases=2 Linecode=1P_OH_AL_2/0_Rucina_0_416_0_2_2

New Line.l(r:p1ulv5281-udm9601) Units=km Length=0.013118900000000001 bus1=udm9601.1.2 bus2=p1ulv5281.1.2 switch=n enabled=y phases=2 Linecode=1P_OH_AL_2/0_Rucina_0_416_0_2_2

New Line.l(r:udm9601-udt2396lv) Units=km Length=0.0186828 bus1=udt2396lv.1.2 bus2=udm9601.1.2 switch=n enabled=y phases=2 Linecode=1P_OH_AL_2/0_Rucina_0_416_0_2_2

New Line.l(r:p1ulv5284-udt2397lv) Units=km Length=0.0128813 bus1=udt2397lv.1.2 bus2=p1ulv5284.1.2 switch=n enabled=y phases=2 Linecode=1P_OH_AL_2/0_Rucina_0_416_0_2_2

New Line.l(r:p1ulv5285-udt2397lv) Units=km Length=0.0141707 bus1=udt2397lv.1.2 bus2=p1ulv5285.1.2 switch=n enabled=y phases=2 Linecode=1P_OH_AL_2/0_Rucina_0_416_0_2_2

New Line.l(r:p1ulv5283-udm9603) Units=km Length=0.015011 bus1=udm9603.1.2 bus2=p1ulv5283.1.2 switch=n enabled=y phases=2 Linecode=1P_OH_AL_2/0_Rucina_0_416_0_2_2

New Line.l(r:udm9603-udt2397lv) Units=km Length=0.017755 bus1=udt2397lv.1.2 bus2=udm9603.1.2 switch=n enabled=y phases=2 Linecode=1P_OH_AL_2/0_Rucina_0_416_0_2_2

New Line.l(r:p1ulv5286-udm9606) Units=km Length=0.0214152 bus1=udm9606.1.2 bus2=p1ulv5286.1.2 switch=n enabled=y phases=2 Linecode=1P_OH_AL_2/0_Rucina_0_416_0_2_2

New Line.l(r:udm9606-udt2397lv) Units=km Length=0.0185118 bus1=udt2397lv.1.2 bus2=udm9606.1.2 switch=n enabled=y phases=2 Linecode=1P_OH_AL_2/0_Rucina_0_416_0_2_2

New Line.l(r:p1ulv5287-udt2398lv) Units=km Length=0.0211177 bus1=udt2398lv.1.2 bus2=p1ulv5287.1.2 switch=n enabled=y phases=2 Linecode=1P_OH_AL_2/0_Rucina_0_416_0_2_2

New Line.l(r:p1ulv5288-udt2398lv) Units=km Length=0.0133887 bus1=udt2398lv.1.2 bus2=p1ulv5288.1.2 switch=n enabled=y phases=2 Linecode=1P_OH_AL_2/0_Rucina_0_416_0_2_2

New Line.l(r:p1ulv5292-udt2399lv) Units=km Length=0.00907214 bus1=udt2399lv.1.2 bus2=p1ulv5292.1.2 switch=n enabled=y phases=2 Linecode=1P_OH_AL_2/0_Rucina_0_416_0_2_2

New Line.l(r:p1ulv36187-udt2399lv) Units=km Length=0.05469570000000001 bus1=udt2399lv.1.2 bus2=p1ulv36187.1.2 switch=n enabled=y phases=2 Linecode=1P_OH_AL_4/0_Zuzara_0_416_0_2_2

New Line.l(r:p1ulv5290-udm9609) Units=km Length=0.0184686 bus1=udm9609.1.2 bus2=p1ulv5290.1.2 switch=n enabled=y phases=2 Linecode=1P_OH_AL_2/0_Rucina_0_416_0_2_2

New Line.l(r:p1ulv5291-udm9609) Units=km Length=0.0131889 bus1=udm9609.1.2 bus2=p1ulv5291.1.2 switch=n enabled=y phases=2 Linecode=1P_OH_AL_2/0_Rucina_0_416_0_2_2

New Line.l(r:udm9609-udt2399lv) Units=km Length=0.0153212 bus1=udt2399lv.1.2 bus2=udm9609.1.2 switch=n enabled=y phases=2 Linecode=1P_OH_AL_2/0_Rucina_0_416_0_2_2

New Line.l(r:p1ulv5293-udt2400lv) Units=km Length=0.0211436 bus1=udt2400lv.1.2 bus2=p1ulv5293.1.2 switch=n enabled=y phases=2 Linecode=1P_OH_AL_2/0_Rucina_0_416_0_2_2

New Line.l(r:p1ulv5294-udt2400lv) Units=km Length=0.0162071 bus1=udt2400lv.1.2 bus2=p1ulv5294.1.2 switch=n enabled=y phases=2 Linecode=1P_OH_AL_2/0_Rucina_0_416_0_2_2

New Line.l(r:p1ulv5295-udt2400lv) Units=km Length=0.0196606 bus1=udt2400lv.1.2 bus2=p1ulv5295.1.2 switch=n enabled=y phases=2 Linecode=1P_OH_AL_2/0_Rucina_0_416_0_2_2

New Line.l(r:p1ulv27178-udt2937lv) Units=km Length=0.0137831 bus1=udt2937lv.1.2 bus2=p1ulv27178.1.2 switch=n enabled=y phases=2 Linecode=1P_UG_AL_1/0_Brenau_0_416_0_2_2

New Line.l(r:p1ulv32190-udt2937lv) Units=km Length=0.0143268 bus1=udt2937lv.1.2 bus2=p1ulv32190.1.2 switch=n enabled=y phases=2 Linecode=1P_UG_AL_1/0_Brenau_0_416_0_2_2

New Line.l(r:p1ulv6475-udm11699) Units=km Length=0.0213879 bus1=udm11699.1.2 bus2=p1ulv6475.1.2 switch=n enabled=y phases=2 Linecode=1P_UG_AL_1/0_Brenau_0_416_0_2_2

New Line.l(r:p1ulv37227-udm11699) Units=km Length=0.0143236 bus1=udm11699.1.2 bus2=p1ulv37227.1.2 switch=n enabled=y phases=2 Linecode=1P_UG_AL_1/0_Brenau_0_416_0_2_2

New Line.l(r:udm11699-udt2937lv) Units=km Length=0.0191008 bus1=udt2937lv.1.2 bus2=udm11699.1.2 switch=n enabled=y phases=2 Linecode=1P_UG_AL_2/0_Converse_0_416_0_2_2

New Line.l(r:p1ulv32031-udm11701) Units=km Length=0.018951000000000003 bus1=udm11701.1.2 bus2=p1ulv32031.1.2 switch=n enabled=y phases=2 Linecode=1P_UG_AL_1/0_Brenau_0_416_0_2_2

New Line.l(r:p1ulv33856-udm11701) Units=km Length=0.0192102 bus1=udm11701.1.2 bus2=p1ulv33856.1.2 switch=n enabled=y phases=2 Linecode=1P_UG_AL_1/0_Brenau_0_416_0_2_2

New Line.l(r:p1ulv6470-udm11698) Units=km Length=0.013588700000000002 bus1=udm11698.1.2 bus2=p1ulv6470.1.2 switch=n enabled=y phases=2 Linecode=1P_UG_AL_1/0_Brenau_0_416_0_2_2

New Line.l(r:udm11698-udm11701) Units=km Length=0.00955034 bus1=udm11701.1.2 bus2=udm11698.1.2 switch=n enabled=y phases=2 Linecode=1P_UG_AL_1/0_Brenau_0_416_0_2_2

New Line.l(r:udm11701-udt2937lv) Units=km Length=0.00955042 bus1=udt2937lv.1.2 bus2=udm11701.1.2 switch=n enabled=y phases=2 Linecode=1P_UG_AL_4/0_Sweetbriar_0_416_0_2_2

New Line.l(r:p1ulv6471-udm11705) Units=km Length=0.0151356 bus1=udm11705.1.2 bus2=p1ulv6471.1.2 switch=n enabled=y phases=2 Linecode=1P_UG_AL_1/0_Brenau_0_416_0_2_2

New Line.l(r:p1ulv6480-udm11705) Units=km Length=0.0152735 bus1=udm11705.1.2 bus2=p1ulv6480.1.2 switch=n enabled=y phases=2 Linecode=1P_UG_AL_1/0_Brenau_0_416_0_2_2

New Line.l(r:p1ulv32324-udm11705) Units=km Length=0.0138622 bus1=udm11705.1.2 bus2=p1ulv32324.1.2 switch=n enabled=y phases=2 Linecode=1P_UG_AL_1/0_Brenau_0_416_0_2_2

New Line.l(r:p1ulv34807-udm11708) Units=km Length=0.0142274 bus1=udm11708.1.2 bus2=p1ulv34807.1.2 switch=n enabled=y phases=2 Linecode=1P_UG_AL_1/0_Brenau_0_416_0_2_2

New Line.l(r:udm11705-udm11708) Units=km Length=0.00993013 bus1=udm11705.1.2 bus2=udm11708.1.2 switch=n enabled=y phases=2 Linecode=1P_UG_AL_1/0_Brenau_0_416_0_2_2

New Line.l(r:udm11705-udt2938lv) Units=km Length=0.00994013 bus1=udt2938lv.1.2 bus2=udm11705.1.2 switch=n enabled=y phases=2 Linecode=1P_UG_AL_4/0_Sweetbriar_0_416_0_2_2

New Line.l(r:p1ulv50800-udm11710) Units=km Length=0.014684 bus1=udm11710.1.2 bus2=p1ulv50800.1.2 switch=n enabled=y phases=2 Linecode=1P_UG_AL_1/0_Brenau_0_416_0_2_2

New Line.l(r:p1ulv49196-udm11709) Units=km Length=0.0141654 bus1=udm11709.1.2 bus2=p1ulv49196.1.2 switch=n enabled=y phases=2 Linecode=1P_UG_AL_1/0_Brenau_0_416_0_2_2

New Line.l(r:udm11709-udm11710) Units=km Length=0.00994013 bus1=udm11710.1.2 bus2=udm11709.1.2 switch=n enabled=y phases=2 Linecode=1P_UG_AL_1/0_Brenau_0_416_0_2_2

New Line.l(r:udm11710-udt2938lv) Units=km Length=0.00993018 bus1=udt2938lv.1.2 bus2=udm11710.1.2 switch=n enabled=y phases=2 Linecode=1P_UG_AL_1/0_Brenau_0_416_0_2_2

New Line.l(r:p1ulv6472-udm11711) Units=km Length=0.020973300000000004 bus1=udm11711.1.2 bus2=p1ulv6472.1.2 switch=n enabled=y phases=2 Linecode=1P_UG_AL_1/0_Brenau_0_416_0_2_2

New Line.l(r:p1ulv30111-udm11715) Units=km Length=0.0179079 bus1=udm11715.1.2 bus2=p1ulv30111.1.2 switch=n enabled=y phases=2 Linecode=1P_UG_AL_1/0_Brenau_0_416_0_2_2

New Line.l(r:p1ulv33341-udm11715) Units=km Length=0.0180054 bus1=udm11715.1.2 bus2=p1ulv33341.1.2 switch=n enabled=y phases=2 Linecode=1P_UG_AL_1/0_Brenau_0_416_0_2_2

New Line.l(r:p1ulv29522-udm11714) Units=km Length=0.020953 bus1=udm11714.1.2 bus2=p1ulv29522.1.2 switch=n enabled=y phases=2 Linecode=1P_UG_AL_1/0_Brenau_0_416_0_2_2

New Line.l(r:udm11714-udm11715) Units=km Length=0.0098394 bus1=udm11715.1.2 bus2=udm11714.1.2 switch=n enabled=y phases=2 Linecode=1P_UG_AL_1/0_Brenau_0_416_0_2_2

New Line.l(r:udm11711-udm11715) Units=km Length=0.0098394 bus1=udm11711.1.2 bus2=udm11715.1.2 switch=n enabled=y phases=2 Linecode=1P_UG_AL_2/0_Converse_0_416_0_2_2

New Line.l(r:udm11711-udt2939lv) Units=km Length=0.009829410000000002 bus1=udt2939lv.1.2 bus2=udm11711.1.2 switch=n enabled=y phases=2 Linecode=1P_UG_AL_4/0_Sweetbriar_0_416_0_2_2

New Line.l(r:p1ulv26824-udm11712) Units=km Length=0.0193893 bus1=udm11712.1.2 bus2=p1ulv26824.1.2 switch=n enabled=y phases=2 Linecode=1P_UG_AL_1/0_Brenau_0_416_0_2_2

New Line.l(r:p1ulv27746-udm11712) Units=km Length=0.0213221 bus1=udm11712.1.2 bus2=p1ulv27746.1.2 switch=n enabled=y phases=2 Linecode=1P_UG_AL_1/0_Brenau_0_416_0_2_2

New Line.l(r:p1ulv35105-udm11717) Units=km Length=0.018066400000000003 bus1=udm11717.1.2 bus2=p1ulv35105.1.2 switch=n enabled=y phases=2 Linecode=1P_UG_AL_1/0_Brenau_0_416_0_2_2

New Line.l(r:udm11712-udm11717) Units=km Length=0.0196688 bus1=udm11712.1.2 bus2=udm11717.1.2 switch=n enabled=y phases=2 Linecode=1P_UG_AL_1/0_Brenau_0_416_0_2_2

New Line.l(r:p1ulv38100-udm11718) Units=km Length=0.0181634 bus1=udm11718.1.2 bus2=p1ulv38100.1.2 switch=n enabled=y phases=2 Linecode=1P_UG_AL_1/0_Brenau_0_416_0_2_2

New Line.l(r:udm11712-udm11718) Units=km Length=0.0098394 bus1=udm11712.1.2 bus2=udm11718.1.2 switch=n enabled=y phases=2 Linecode=1P_UG_AL_1/0_Brenau_0_416_0_2_2

New Line.l(r:udm11712-udt2939lv) Units=km Length=0.0196788 bus1=udt2939lv.1.2 bus2=udm11712.1.2 switch=n enabled=y phases=2 Linecode=1P_UG_AL_4/0_Sweetbriar_0_416_0_2_2

New Line.l(r:p1ulv6473-udt2940lv) Units=km Length=0.0181959 bus1=udt2940lv.1.2 bus2=p1ulv6473.1.2 switch=n enabled=y phases=2 Linecode=1P_UG_AL_1/0_Brenau_0_416_0_2_2

New Line.l(r:p1ulv27236-udt2940lv) Units=km Length=0.0167646 bus1=udt2940lv.1.2 bus2=p1ulv27236.1.2 switch=n enabled=y phases=2 Linecode=1P_UG_AL_1/0_Brenau_0_416_0_2_2

New Line.l(r:p1ulv31881-udt2940lv) Units=km Length=0.016248700000000005 bus1=udt2940lv.1.2 bus2=p1ulv31881.1.2 switch=n enabled=y phases=2 Linecode=1P_UG_AL_1/0_Brenau_0_416_0_2_2

New Line.l(r:p1ulv6482-udt2941lv) Units=km Length=0.014411 bus1=udt2941lv.1.2 bus2=p1ulv6482.1.2 switch=n enabled=y phases=2 Linecode=1P_OH_AL_2/0_Rucina_0_416_0_2_2

New Line.l(r:p1ulv6474-udm11722) Units=km Length=0.0181716 bus1=udm11722.1.2 bus2=p1ulv6474.1.2 switch=n enabled=y phases=2 Linecode=1P_OH_AL_2/0_Rucina_0_416_0_2_2

New Line.l(r:p1ulv6479-udm11723) Units=km Length=0.024466 bus1=udm11723.1.2 bus2=p1ulv6479.1.2 switch=n enabled=y phases=2 Linecode=1P_OH_AL_2/0_Rucina_0_416_0_2_2

New Line.l(r:udm11722-udm11723) Units=km Length=0.0188147 bus1=udm11722.1.2 bus2=udm11723.1.2 switch=n enabled=y phases=2 Linecode=1P_OH_AL_2/0_Rucina_0_416_0_2_2
