New Line.l(r:p1ulv4378-udt1963lv) Units=km Length=0.0253949 bus1=udt1963lv.1.2 bus2=p1ulv4378.1.2 switch=n enabled=y phases=2 Linecode=1P_UG_AL_4/0_Sweetbriar_0_416_0_2_2

New Line.l(r:p1ulv33736-udt1963lv) Units=km Length=0.0581156 bus1=udt1963lv.1.2 bus2=p1ulv33736.1.2 switch=n enabled=y phases=2 Linecode=1P_UG_AL_4/0_Sweetbriar_0_416_0_2_2

New Line.l(r:p1ulv5724-udt2597lv) Units=km Length=0.0268331 bus1=udt2597lv.1.2 bus2=p1ulv5724.1.2 switch=n enabled=y phases=2 Linecode=1P_UG_AL_4/0_Sweetbriar_0_416_0_2_2

New Line.l(r:p1ulv5725-udt2598lv) Units=km Length=0.0170624 bus1=udt2598lv.1.2 bus2=p1ulv5725.1.2 switch=n enabled=y phases=2 Linecode=1P_UG_AL_4/0_Sweetbriar_0_416_0_2_2

New Line.l(r:p1ulv5727-udt2599lv) Units=km Length=0.0168532 bus1=udt2599lv.1.2 bus2=p1ulv5727.1.2 switch=n enabled=y phases=2 Linecode=1P_UG_AL_4/0_Sweetbriar_0_416_0_2_2

New Line.l(r:p1ulv5729-udt2600lv) Units=km Length=0.015355200000000001 bus1=udt2600lv.1.2 bus2=p1ulv5729.1.2 switch=n enabled=y phases=2 Linecode=1P_UG_AL_4/0_Sweetbriar_0_416_0_2_2

New Line.l(r:p1ulv5730-udt2601lv) Units=km Length=0.0134661 bus1=udt2601lv.1.2 bus2=p1ulv5730.1.2 switch=n enabled=y phases=2 Linecode=1P_UG_AL_4/0_Sweetbriar_0_416_0_2_2

New Line.l(r:p1ulv5731-udt2602lv) Units=km Length=0.0138409 bus1=udt2602lv.1.2 bus2=p1ulv5731.1.2 switch=n enabled=y phases=2 Linecode=1P_UG_AL_4/0_Sweetbriar_0_416_0_2_2

New Line.l(r:p1ulv5732-udt2603lv) Units=km Length=0.0136345 bus1=udt2603lv.1.2 bus2=p1ulv5732.1.2 switch=n enabled=y phases=2 Linecode=1P_UG_AL_4/0_Sweetbriar_0_416_0_2_2

New Line.l(r:p1ulv5733-udt2604lv) Units=km Length=0.018035 bus1=udt2604lv.1.2 bus2=p1ulv5733.1.2 switch=n enabled=y phases=2 Linecode=1P_UG_AL_4/0_Sweetbriar_0_416_0_2_2

New Line.l(r:p1ulv5735-udm10254) Units=km Length=0.017173 bus1=udm10254.1.2 bus2=p1ulv5735.1.2 switch=n enabled=y phases=2 Linecode=1P_UG_AL_4/0_Sweetbriar_0_416_0_2_2

New Line.l(r:udm10254-udt2605lv) Units=km Length=0.00771622 bus1=udt2605lv.1.2 bus2=udm10254.1.2 switch=n enabled=y phases=2 Linecode=1P_UG_AL_4/0_Sweetbriar_0_416_0_2_2

New Line.l(r:p1ulv5736-udm10255) Units=km Length=0.0132731 bus1=udm10255.1.2 bus2=p1ulv5736.1.2 switch=n enabled=y phases=2 Linecode=1P_UG_AL_4/0_Sweetbriar_0_416_0_2_2

New Line.l(r:udm10255-udt2605lv) Units=km Length=0.0349456 bus1=udt2605lv.1.2 bus2=udm10255.1.2 switch=n enabled=y phases=2 Linecode=1P_UG_AL_4/0_Sweetbriar_0_416_0_2_2

New Line.l(r:p1ulv5737-udt2606lv) Units=km Length=0.017963100000000003 bus1=udt2606lv.1.2 bus2=p1ulv5737.1.2 switch=n enabled=y phases=2 Linecode=1P_UG_AL_4/0_Sweetbriar_0_416_0_2_2

New Line.l(r:p1ulv5738-udt2607lv) Units=km Length=0.00895082 bus1=udt2607lv.1.2 bus2=p1ulv5738.1.2 switch=n enabled=y phases=2 Linecode=1P_UG_AL_4/0_Sweetbriar_0_416_0_2_2

New Line.l(r:p1ulv5740-udt2608lv) Units=km Length=0.0299124 bus1=udt2608lv.1.2 bus2=p1ulv5740.1.2 switch=n enabled=y phases=2 Linecode=1P_UG_AL_1/0_Brenau_0_416_0_2_2

New Line.l(r:p1ulv5739-udm10258) Units=km Length=0.0261634 bus1=udm10258.1.2 bus2=p1ulv5739.1.2 switch=n enabled=y phases=2 Linecode=1P_UG_AL_1/0_Brenau_0_416_0_2_2

New Line.l(r:udm10258-udt2608lv) Units=km Length=0.00948182 bus1=udt2608lv.1.2 bus2=udm10258.1.2 switch=n enabled=y phases=2 Linecode=1P_UG_AL_1/0_Brenau_0_416_0_2_2

New Line.l(r:p1ulv5741-udm10260) Units=km Length=0.0327117 bus1=udm10260.1.2 bus2=p1ulv5741.1.2 switch=n enabled=y phases=2 Linecode=1P_UG_AL_1/0_Brenau_0_416_0_2_2

New Line.l(r:udm10260-udt2608lv) Units=km Length=0.00852344 bus1=udt2608lv.1.2 bus2=udm10260.1.2 switch=n enabled=y phases=2 Linecode=1P_UG_AL_1/0_Brenau_0_416_0_2_2

New Line.l(r:p1ulv5806-udm10322) Units=km Length=0.0825548 bus1=udm10322.1.2 bus2=p1ulv5806.1.2 switch=n enabled=y phases=2 Linecode=1P_UG_AL_4/0_Sweetbriar_0_416_0_2_2

New Line.l(r:udm10322-udt2626lv) Units=km Length=0.00959521 bus1=udt2626lv.1.2 bus2=udm10322.1.2 switch=n enabled=y phases=2 Linecode=1P_UG_AL_4/0_Sweetbriar_0_416_0_2_2

New Line.l(r:p1ulv12608-udm10323) Units=km Length=0.0231297 bus1=udm10323.1.2 bus2=p1ulv12608.1.2 switch=n enabled=y phases=2 Linecode=1P_UG_AL_1/0_Brenau_0_416_0_2_2

New Line.l(r:udm10323-udt2626lv) Units=km Length=0.00959465 bus1=udt2626lv.1.2 bus2=udm10323.1.2 switch=n enabled=y phases=2 Linecode=1P_UG_AL_1/0_Brenau_0_416_0_2_2

New Line.l(r:p1ulv5808-udm10325) Units=km Length=0.0181803 bus1=udm10325.1.2 bus2=p1ulv5808.1.2 switch=n enabled=y phases=2 Linecode=1P_UG_AL_1/0_Brenau_0_416_0_2_2

New Line.l(r:udm10325-udt2627lv) Units=km Length=0.029887300000000002 bus1=udt2627lv.1.2 bus2=udm10325.1.2 switch=n enabled=y phases=2 Linecode=1P_UG_AL_1/0_Brenau_0_416_0_2_2

New Line.l(r:p1ulv39242-udm10326) Units=km Length=0.0158934 bus1=udm10326.1.2 bus2=p1ulv39242.1.2 switch=n enabled=y phases=2 Linecode=1P_UG_AL_1/0_Brenau_0_416_0_2_2

New Line.l(r:p1ulv5807-udm10324) Units=km Length=0.0175929 bus1=udm10324.1.2 bus2=p1ulv5807.1.2 switch=n enabled=y phases=2 Linecode=1P_UG_AL_1/0_Brenau_0_416_0_2_2

New Line.l(r:udm10324-udm10326) Units=km Length=0.0179918 bus1=udm10326.1.2 bus2=udm10324.1.2 switch=n enabled=y phases=2 Linecode=1P_UG_AL_1/0_Brenau_0_416_0_2_2

New Line.l(r:udm10326-udt2627lv) Units=km Length=0.00996217 bus1=udt2627lv.1.2 bus2=udm10326.1.2 switch=n enabled=y phases=2 Linecode=1P_UG_AL_1/0_Brenau_0_416_0_2_2

New Line.l(r:p1ulv45929-udt2628lv) Units=km Length=0.0237321 bus1=udt2628lv.1.2 bus2=p1ulv45929.1.2 switch=n enabled=y phases=2 Linecode=1P_UG_AL_1/0_Brenau_0_416_0_2_2

New Line.l(r:p1ulv5809-udm10327) Units=km Length=0.0203089 bus1=udm10327.1.2 bus2=p1ulv5809.1.2 switch=n enabled=y phases=2 Linecode=1P_UG_AL_1/0_Brenau_0_416_0_2_2

New Line.l(r:p1ulv49170-udm10327) Units=km Length=0.05363500000000001 bus1=udm10327.1.2 bus2=p1ulv49170.1.2 switch=n enabled=y phases=2 Linecode=1P_UG_AL_1/0_Brenau_0_416_0_2_2

New Line.l(r:p1ulv30517-udm10328) Units=km Length=0.0234158 bus1=udm10328.1.2 bus2=p1ulv30517.1.2 switch=n enabled=y phases=2 Linecode=1P_UG_AL_1/0_Brenau_0_416_0_2_2

New Line.l(r:udm10327-udm10328) Units=km Length=0.00976128 bus1=udm10327.1.2 bus2=udm10328.1.2 switch=n enabled=y phases=2 Linecode=1P_UG_AL_1/0_Brenau_0_416_0_2_2

New Line.l(r:udm10327-udt2628lv) Units=km Length=0.019531 bus1=udt2628lv.1.2 bus2=udm10327.1.2 switch=n enabled=y phases=2 Linecode=1P_UG_AL_2/0_Converse_0_416_0_2_2

New Line.l(r:p1ulv34584-udm10329) Units=km Length=0.0196924 bus1=udm10329.1.2 bus2=p1ulv34584.1.2 switch=n enabled=y phases=2 Linecode=1P_UG_AL_1/0_Brenau_0_416_0_2_2

New Line.l(r:p1ulv37913-udm10330) Units=km Length=0.016895 bus1=udm10330.1.2 bus2=p1ulv37913.1.2 switch=n enabled=y phases=2 Linecode=1P_UG_AL_1/0_Brenau_0_416_0_2_2

New Line.l(r:udm10329-udm10330) Units=km Length=0.0195226 bus1=udm10329.1.2 bus2=udm10330.1.2 switch=n enabled=y phases=2 Linecode=1P_UG_AL_1/0_Brenau_0_416_0_2_2

New Line.l(r:udm10329-udt2628lv) Units=km Length=0.0195171 bus1=udt2628lv.1.2 bus2=udm10329.1.2 switch=n enabled=y phases=2 Linecode=1P_UG_AL_1/0_Brenau_0_416_0_2_2

New Line.l(r:p1ulv47320-udt3441lv) Units=km Length=0.0245781 bus1=udt3441lv.1.2 bus2=p1ulv47320.1.2 switch=n enabled=y phases=2 Linecode=1P_OH_AL_2/0_Rucina_0_416_0_2_2

New Line.l(r:p1ulv7630-udm13598) Units=km Length=0.0420114 bus1=udm13598.1.2 bus2=p1ulv7630.1.2 switch=n enabled=y phases=2 Linecode=1P_OH_AL_4/0_Zuzara_0_416_0_2_2

New Line.l(r:udm13598-udt3441lv) Units=km Length=0.0187897 bus1=udt3441lv.1.2 bus2=udm13598.1.2 switch=n enabled=y phases=2 Linecode=1P_OH_AL_2/0_Rucina_0_416_0_2_2

New Line.l(r:p1ulv56145-udm13600) Units=km Length=0.0235177 bus1=udm13600.1.2 bus2=p1ulv56145.1.2 switch=n enabled=y phases=2 Linecode=1P_OH_AL_2/0_Rucina_0_416_0_2_2

New Line.l(r:udm13600-udt3441lv) Units=km Length=0.0375602 bus1=udt3441lv.1.2 bus2=udm13600.1.2 switch=n enabled=y phases=2 Linecode=1P_OH_AL_4/0_Zuzara_0_416_0_2_2

New Line.l(r:p1ulv7631-udt3442lv) Units=km Length=0.0233714 bus1=udt3442lv.1.2 bus2=p1ulv7631.1.2 switch=n enabled=y phases=2 Linecode=1P_OH_AL_2/0_Rucina_0_416_0_2_2

New Line.l(r:p1ulv7636-udt3447lv) Units=km Length=0.0241459 bus1=udt3447lv.1.2 bus2=p1ulv7636.1.2 switch=n enabled=y phases=2 Linecode=1P_OH_AL_2/0_Rucina_0_416_0_2_2

New Line.l(r:p1ulv40468-udt3447lv) Units=km Length=0.0239232 bus1=udt3447lv.1.2 bus2=p1ulv40468.1.2 switch=n enabled=y phases=2 Linecode=1P_OH_AL_2/0_Rucina_0_416_0_2_2

New Line.l(r:p1ulv53124-udt3447lv) Units=km Length=0.0287812 bus1=udt3447lv.1.2 bus2=p1ulv53124.1.2 switch=n enabled=y phases=2 Linecode=1P_OH_AL_4/0_Zuzara_0_416_0_2_2

New Line.l(r:p1ulv53426-udt3447lv) Units=km Length=0.0181041 bus1=udt3447lv.1.2 bus2=p1ulv53426.1.2 switch=n enabled=y phases=2 Linecode=1P_OH_AL_2/0_Rucina_0_416_0_2_2

New Line.l(r:p1ulv60266-udt3447lv) Units=km Length=0.00691338 bus1=udt3447lv.1.2 bus2=p1ulv60266.1.2 switch=n enabled=y phases=2 Linecode=1P_OH_AL_2/0_Rucina_0_416_0_2_2

New Line.l(r:p1ulv60577-udt3447lv) Units=km Length=0.0176728 bus1=udt3447lv.1.2 bus2=p1ulv60577.1.2 switch=n enabled=y phases=2 Linecode=1P_OH_AL_2/0_Rucina_0_416_0_2_2

New Line.l(r:p1ulv38367-udm13610) Units=km Length=0.028170100000000003 bus1=udm13610.1.2 bus2=p1ulv38367.1.2 switch=n enabled=y phases=2 Linecode=1P_OH_AL_4/0_Zuzara_0_416_0_2_2

New Line.l(r:udm13610-udt3447lv) Units=km Length=0.106889 bus1=udt3447lv.1.2 bus2=udm13610.1.2 switch=n enabled=y phases=2 Linecode=1P_OH_AL_4/0_Zuzara_0_416_0_2_2

New Line.l(r:p1ulv7648-udm13627) Units=km Length=0.0175608 bus1=udm13627.1.2 bus2=p1ulv7648.1.2 switch=n enabled=y phases=2 Linecode=1P_UG_AL_1/0_Brenau_0_416_0_2_2

New Line.l(r:udm13627-udt3459lv) Units=km Length=0.0189006 bus1=udt3459lv.1.2 bus2=udm13627.1.2 switch=n enabled=y phases=2 Linecode=1P_UG_AL_1/0_Brenau_0_416_0_2_2

New Line.l(r:p1ulv56702-udm13628) Units=km Length=0.0177003 bus1=udm13628.1.2 bus2=p1ulv56702.1.2 switch=n enabled=y phases=2 Linecode=1P_UG_AL_1/0_Brenau_0_416_0_2_2

New Line.l(r:udm13628-udt3459lv) Units=km Length=0.028361 bus1=udt3459lv.1.2 bus2=udm13628.1.2 switch=n enabled=y phases=2 Linecode=1P_UG_AL_1/0_Brenau_0_416_0_2_2

New Line.l(r:p1ulv7650-udt3460lv) Units=km Length=0.018084 bus1=udt3460lv.1.2 bus2=p1ulv7650.1.2 switch=n enabled=y phases=2 Linecode=1P_UG_AL_1/0_Brenau_0_416_0_2_2

New Line.l(r:p1ulv7649-udm13629) Units=km Length=0.0365832 bus1=udm13629.1.2 bus2=p1ulv7649.1.2 switch=n enabled=y phases=2 Linecode=1P_UG_AL_1/0_Brenau_0_416_0_2_2

New Line.l(r:udm13629-udt3460lv) Units=km Length=0.00566043 bus1=udt3460lv.1.2 bus2=udm13629.1.2 switch=n enabled=y phases=2 Linecode=1P_UG_AL_1/0_Brenau_0_416_0_2_2

New Line.l(r:p1ulv57925-udm13631) Units=km Length=0.013046000000000002 bus1=udm13631.1.2 bus2=p1ulv57925.1.2 switch=n enabled=y phases=2 Linecode=1P_UG_AL_1/0_Brenau_0_416_0_2_2

New Line.l(r:p1ulv59108-udm13631) Units=km Length=0.00349384 bus1=udm13631.1.2 bus2=p1ulv59108.1.2 switch=n enabled=y phases=2 Linecode=1P_UG_AL_1/0_Brenau_0_416_0_2_2

New Line.l(r:udm13631-udt3460lv) Units=km Length=0.00658717 bus1=udt3460lv.1.2 bus2=udm13631.1.2 switch=n enabled=y phases=2 Linecode=1P_UG_AL_1/0_Brenau_0_416_0_2_2

New Line.l(r:p1ulv7651-udt3461lv) Units=km Length=0.0367467 bus1=udt3461lv.1.2 bus2=p1ulv7651.1.2 switch=n enabled=y phases=2 Linecode=1P_OH_AL_4/0_Zuzara_0_416_0_2_2

New Line.l(r:p1ulv57355-udm13634) Units=km Length=0.0192054 bus1=udm13634.1.2 bus2=p1ulv57355.1.2 switch=n enabled=y phases=2 Linecode=1P_OH_AL_2/0_Rucina_0_416_0_2_2

New Line.l(r:udm13634-udt3461lv) Units=km Length=0.0570712 bus1=udt3461lv.1.2 bus2=udm13634.1.2 switch=n enabled=y phases=2 Linecode=1P_OH_AL_4/0_Zuzara_0_416_0_2_2

New Line.l(r:p1ulv60807-udm13635) Units=km Length=0.0344712 bus1=udm13635.1.2 bus2=p1ulv60807.1.2 switch=n enabled=y phases=2 Linecode=1P_OH_AL_4/0_Zuzara_0_416_0_2_2

New Line.l(r:udm13635-udt3461lv) Units=km Length=0.0380562 bus1=udt3461lv.1.2 bus2=udm13635.1.2 switch=n enabled=y phases=2 Linecode=1P_OH_AL_4/0_Zuzara_0_416_0_2_2

New Line.l(r:p1ulv60228-udt3463lv) Units=km Length=0.0235706 bus1=udt3463lv.1.2 bus2=p1ulv60228.1.2 switch=n enabled=y phases=2 Linecode=1P_UG_AL_1/0_Brenau_0_416_0_2_2

New Line.l(r:p1ulv7653-udm13637) Units=km Length=0.0313447 bus1=udm13637.1.2 bus2=p1ulv7653.1.2 switch=n enabled=y phases=2 Linecode=1P_UG_AL_1/0_Brenau_0_416_0_2_2

New Line.l(r:p1ulv40430-udm13638) Units=km Length=0.024323500000000005 bus1=udm13638.1.2 bus2=p1ulv40430.1.2 switch=n enabled=y phases=2 Linecode=1P_UG_AL_1/0_Brenau_0_416_0_2_2

New Line.l(r:udm13637-udm13638) Units=km Length=0.0207018 bus1=udm13637.1.2 bus2=udm13638.1.2 switch=n enabled=y phases=2 Linecode=1P_UG_AL_1/0_Brenau_0_416_0_2_2

New Line.l(r:udm13637-udt3463lv) Units=km Length=0.0145934 bus1=udt3463lv.1.2 bus2=udm13637.1.2 switch=n enabled=y phases=2 Linecode=1P_UG_AL_2/0_Converse_0_416_0_2_2

New Line.l(r:p1ulv53086-udm13639) Units=km Length=0.021863600000000004 bus1=udm13639.1.2 bus2=p1ulv53086.1.2 switch=n enabled=y phases=2 Linecode=1P_OH_AL_2/0_Rucina_0_416_0_2_2

New Line.l(r:udm13639-udt3463lv) Units=km Length=0.0414624 bus1=udt3463lv.1.2 bus2=udm13639.1.2 switch=n enabled=y phases=2 Linecode=1P_OH_AL_4/0_Zuzara_0_416_0_2_2

New Line.l(r:p1ulv7655-udt3464lv) Units=km Length=0.0412502 bus1=udt3464lv.1.2 bus2=p1ulv7655.1.2 switch=n enabled=y phases=2 Linecode=1P_OH_AL_4/0_Zuzara_0_416_0_2_2

New Line.l(r:p1ulv7657-udt3464lv) Units=km Length=0.0387675 bus1=udt3464lv.1.2 bus2=p1ulv7657.1.2 switch=n enabled=y phases=2 Linecode=1P_OH_AL_4/0_Zuzara_0_416_0_2_2

New Line.l(r:p1ulv60155-udt3464lv) Units=km Length=0.007773 bus1=udt3464lv.1.2 bus2=p1ulv60155.1.2 switch=n enabled=y phases=2 Linecode=1P_OH_AL_2/0_Rucina_0_416_0_2_2

New Line.l(r:p1ulv7654-udm13641) Units=km Length=0.0313272 bus1=udm13641.1.2 bus2=p1ulv7654.1.2 switch=n enabled=y phases=2 Linecode=1P_OH_AL_4/0_Zuzara_0_416_0_2_2

New Line.l(r:p1ulv7658-udm13641) Units=km Length=0.037412 bus1=udm13641.1.2 bus2=p1ulv7658.1.2 switch=n enabled=y phases=2 Linecode=1P_OH_AL_4/0_Zuzara_0_416_0_2_2

New Line.l(r:udm13641-udt3464lv) Units=km Length=0.019004100000000003 bus1=udt3464lv.1.2 bus2=udm13641.1.2 switch=n enabled=y phases=2 Linecode=1P_OH_AL_2/0_Rucina_0_416_0_2_2

New Line.l(r:p1ulv53362-udm13645) Units=km Length=0.016630400000000004 bus1=udm13645.1.2 bus2=p1ulv53362.1.2 switch=n enabled=y phases=2 Linecode=1P_OH_AL_2/0_Rucina_0_416_0_2_2

New Line.l(r:udm13645-udt3464lv) Units=km Length=0.0768237 bus1=udt3464lv.1.2 bus2=udm13645.1.2 switch=n enabled=y phases=2 Linecode=1P_OH_AL_4/0_Zuzara_0_416_0_2_2

New Line.l(r:p1ulv43565-udt3465lv) Units=km Length=0.0392874 bus1=udt3465lv.1.2 bus2=p1ulv43565.1.2 switch=n enabled=y phases=2 Linecode=1P_OH_AL_4/0_Zuzara_0_416_0_2_2

New Line.l(r:p1ulv7656-udm13647) Units=km Length=0.022862000000000004 bus1=udm13647.1.2 bus2=p1ulv7656.1.2 switch=n enabled=y phases=2 Linecode=1P_OH_AL_2/0_Rucina_0_416_0_2_2

New Line.l(r:udm13647-udt3465lv) Units=km Length=0.0182963 bus1=udt3465lv.1.2 bus2=udm13647.1.2 switch=n enabled=y phases=2 Linecode=1P_OH_AL_2/0_Rucina_0_416_0_2_2

New Line.l(r:p1ulv7659-udm13649) Units=km Length=0.0428823 bus1=udm13649.1.2 bus2=p1ulv7659.1.2 switch=n enabled=y phases=2 Linecode=1P_OH_AL_4/0_Zuzara_0_416_0_2_2

New Line.l(r:udm13649-udt3466lv) Units=km Length=0.00479401 bus1=udt3466lv.1.2 bus2=udm13649.1.2 switch=n enabled=y phases=2 Linecode=1P_OH_AL_2/0_Rucina_0_416_0_2_2

New Line.l(r:p1ulv56602-udm13650) Units=km Length=0.0333458 bus1=udm13650.1.2 bus2=p1ulv56602.1.2 switch=n enabled=y phases=2 Linecode=1P_OH_AL_4/0_Zuzara_0_416_0_2_2

New Line.l(r:udm13650-udt3466lv) Units=km Length=0.0217855 bus1=udt3466lv.1.2 bus2=udm13650.1.2 switch=n enabled=y phases=2 Linecode=1P_OH_AL_2/0_Rucina_0_416_0_2_2

New Line.l(r:p1ulv7660-udt3467lv) Units=km Length=0.027044 bus1=udt3467lv.1.2 bus2=p1ulv7660.1.2 switch=n enabled=y phases=2 Linecode=1P_UG_AL_1/0_Brenau_0_416_0_2_2

New Line.l(r:p1ulv51920-udm13652) Units=km Length=0.04167390000000001 bus1=udm13652.1.2 bus2=p1ulv51920.1.2 switch=n enabled=y phases=2 Linecode=1P_UG_AL_1/0_Brenau_0_416_0_2_2

New Line.l(r:udm13652-udt3467lv) Units=km Length=0.0293417 bus1=udt3467lv.1.2 bus2=udm13652.1.2 switch=n enabled=y phases=2 Linecode=1P_UG_AL_1/0_Brenau_0_416_0_2_2

New Line.l(r:p1ulv59127-udm13653) Units=km Length=0.0403659 bus1=udm13653.1.2 bus2=p1ulv59127.1.2 switch=n enabled=y phases=2 Linecode=1P_UG_AL_1/0_Brenau_0_416_0_2_2

New Line.l(r:udm13653-udt3467lv) Units=km Length=0.024957 bus1=udt3467lv.1.2 bus2=udm13653.1.2 switch=n enabled=y phases=2 Linecode=1P_UG_AL_1/0_Brenau_0_416_0_2_2

New Line.l(r:p1ulv7661-udt3468lv) Units=km Length=0.0398233 bus1=udt3468lv.1.2 bus2=p1ulv7661.1.2 switch=n enabled=y phases=2 Linecode=1P_OH_AL_4/0_Zuzara_0_416_0_2_2

New Line.l(r:p1ulv43248-udm13655) Units=km Length=0.038104 bus1=udm13655.1.2 bus2=p1ulv43248.1.2 switch=n enabled=y phases=2 Linecode=1P_OH_AL_4/0_Zuzara_0_416_0_2_2

New Line.l(r:udm13655-udt3468lv) Units=km Length=0.0182963 bus1=udt3468lv.1.2 bus2=udm13655.1.2 switch=n enabled=y phases=2 Linecode=1P_OH_AL_2/0_Rucina_0_416_0_2_2

New Line.l(r:p1ulv7663-udt3470lv) Units=km Length=0.025284900000000003 bus1=udt3470lv.1.2 bus2=p1ulv7663.1.2 switch=n enabled=y phases=2 Linecode=1P_OH_AL_2/0_Rucina_0_416_0_2_2

New Line.l(r:p1ulv51110-udt3470lv) Units=km Length=0.025141900000000002 bus1=udt3470lv.1.2 bus2=p1ulv51110.1.2 switch=n enabled=y phases=2 Linecode=1P_OH_AL_2/0_Rucina_0_416_0_2_2

New Line.l(r:p1ulv7666-udt3471lv) Units=km Length=0.021574800000000005 bus1=udt3471lv.1.2 bus2=p1ulv7666.1.2 switch=n enabled=y phases=2 Linecode=1P_OH_AL_2/0_Rucina_0_416_0_2_2

New Line.l(r:p1ulv7664-udm13659) Units=km Length=0.0219427 bus1=udm13659.1.2 bus2=p1ulv7664.1.2 switch=n enabled=y phases=2 Linecode=1P_OH_AL_2/0_Rucina_0_416_0_2_2

New Line.l(r:p1ulv60174-udm13659) Units=km Length=0.021609 bus1=udm13659.1.2 bus2=p1ulv60174.1.2 switch=n enabled=y phases=2 Linecode=1P_OH_AL_2/0_Rucina_0_416_0_2_2

New Line.l(r:p1ulv55108-udm13662) Units=km Length=0.0196776 bus1=udm13662.1.2 bus2=p1ulv55108.1.2 switch=n enabled=y phases=2 Linecode=1P_OH_AL_2/0_Rucina_0_416_0_2_2

New Line.l(r:udm13659-udm13662) Units=km Length=0.0335725 bus1=udm13659.1.2 bus2=udm13662.1.2 switch=n enabled=y phases=2 Linecode=1P_OH_AL_4/0_Zuzara_0_416_0_2_2

New Line.l(r:udm13659-udt3471lv) Units=km Length=0.016784 bus1=udt3471lv.1.2 bus2=udm13659.1.2 switch=n enabled=y phases=2 Linecode=1P_OH_AL_2/0_Rucina_0_416_0_2_2

New Line.l(r:p1ulv39686-udm13661) Units=km Length=0.027546 bus1=udm13661.1.2 bus2=p1ulv39686.1.2 switch=n enabled=y phases=2 Linecode=1P_OH_AL_4/0_Zuzara_0_416_0_2_2

New Line.l(r:udm13661-udt3471lv) Units=km Length=0.0351163 bus1=udt3471lv.1.2 bus2=udm13661.1.2 switch=n enabled=y phases=2 Linecode=1P_OH_AL_4/0_Zuzara_0_416_0_2_2

New Line.l(r:p1ulv7668-udt3472lv) Units=km Length=0.026525800000000002 bus1=udt3472lv.1.2 bus2=p1ulv7668.1.2 switch=n enabled=y phases=2 Linecode=1P_OH_AL_2/0_Rucina_0_416_0_2_2

New Line.l(r:p1ulv7665-udm13664) Units=km Length=0.0189178 bus1=udm13664.1.2 bus2=p1ulv7665.1.2 switch=n enabled=y phases=2 Linecode=1P_OH_AL_2/0_Rucina_0_416_0_2_2

New Line.l(r:udm13664-udt3472lv) Units=km Length=0.0174193 bus1=udt3472lv.1.2 bus2=udm13664.1.2 switch=n enabled=y phases=2 Linecode=1P_OH_AL_2/0_Rucina_0_416_0_2_2

New Line.l(r:p1ulv7667-udm13666) Units=km Length=0.0260551 bus1=udm13666.1.2 bus2=p1ulv7667.1.2 switch=n enabled=y phases=2 Linecode=1P_OH_AL_2/0_Rucina_0_416_0_2_2

New Line.l(r:udm13666-udt3473lv) Units=km Length=0.0348606 bus1=udt3473lv.1.2 bus2=udm13666.1.2 switch=n enabled=y phases=2 Linecode=1P_OH_AL_4/0_Zuzara_0_416_0_2_2

New Line.l(r:p1ulv44769-udm13667) Units=km Length=0.0267264 bus1=udm13667.1.2 bus2=p1ulv44769.1.2 switch=n enabled=y phases=2 Linecode=1P_OH_AL_2/0_Rucina_0_416_0_2_2

New Line.l(r:udm13667-udt3473lv) Units=km Length=0.0174193 bus1=udt3473lv.1.2 bus2=udm13667.1.2 switch=n enabled=y phases=2 Linecode=1P_OH_AL_2/0_Rucina_0_416_0_2_2

New Line.l(r:p1ulv7669-udm13668) Units=km Length=0.0240935 bus1=udm13668.1.2 bus2=p1ulv7669.1.2 switch=n enabled=y phases=2 Linecode=1P_OH_AL_2/0_Rucina_0_416_0_2_2

New Line.l(r:p1ulv39994-udm13669) Units=km Length=0.0181019 bus1=udm13669.1.2 bus2=p1ulv39994.1.2 switch=n enabled=y phases=2 Linecode=1P_OH_AL_2/0_Rucina_0_416_0_2_2

New Line.l(r:udm13668-udm13669) Units=km Length=0.0674946 bus1=udm13668.1.2 bus2=udm13669.1.2 switch=n enabled=y phases=2 Linecode=1P_OH_AL_4/0_Zuzara_0_416_0_2_2

New Line.l(r:udm13668-udt3474lv) Units=km Length=0.0121294 bus1=udt3474lv.1.2 bus2=udm13668.1.2 switch=n enabled=y phases=2 Linecode=1P_OH_AL_2/0_Rucina_0_416_0_2_2

New Line.l(r:p1ulv53714-udm13670) Units=km Length=0.0188605 bus1=udm13670.1.2 bus2=p1ulv53714.1.2 switch=n enabled=y phases=2 Linecode=1P_OH_AL_2/0_Rucina_0_416_0_2_2

New Line.l(r:udm13670-udt3474lv) Units=km Length=0.0428355 bus1=udt3474lv.1.2 bus2=udm13670.1.2 switch=n enabled=y phases=2 Linecode=1P_OH_AL_4/0_Zuzara_0_416_0_2_2

New Line.l(r:p1ulv52314-udm13672) Units=km Length=0.0366211 bus1=udm13672.1.2 bus2=p1ulv52314.1.2 switch=n enabled=y phases=2 Linecode=1P_UG_AL_1/0_Brenau_0_416_0_2_2

New Line.l(r:udm13672-udt3475lv) Units=km Length=0.0299282 bus1=udt3475lv.1.2 bus2=udm13672.1.2 switch=n enabled=y phases=2 Linecode=1P_OH_AL_4/0_Zuzara_0_416_0_2_2

New Line.l(r:p1ulv54701-udm13673) Units=km Length=0.035192 bus1=udm13673.1.2 bus2=p1ulv54701.1.2 switch=n enabled=y phases=2 Linecode=1P_OH_AL_4/0_Zuzara_0_416_0_2_2

New Line.l(r:p1ulv7670-udm13671) Units=km Length=0.0243616 bus1=udm13671.1.2 bus2=p1ulv7670.1.2 switch=n enabled=y phases=2 Linecode=1P_OH_AL_2/0_Rucina_0_416_0_2_2

New Line.l(r:udm13671-udm13673) Units=km Length=0.0133612 bus1=udm13673.1.2 bus2=udm13671.1.2 switch=n enabled=y phases=2 Linecode=1P_OH_AL_2/0_Rucina_0_416_0_2_2

New Line.l(r:udm13673-udt3475lv) Units=km Length=0.0133682 bus1=udt3475lv.1.2 bus2=udm13673.1.2 switch=n enabled=y phases=2 Linecode=1P_OH_AL_2/0_Rucina_0_416_0_2_2

New Line.l(r:p1ulv7671-udm13674) Units=km Length=0.0362383 bus1=udm13674.1.2 bus2=p1ulv7671.1.2 switch=n enabled=y phases=2 Linecode=1P_UG_AL_1/0_Brenau_0_416_0_2_2

New Line.l(r:udm13674-udt3476lv) Units=km Length=0.00943994 bus1=udt3476lv.1.2 bus2=udm13674.1.2 switch=n enabled=y phases=2 Linecode=1P_UG_AL_1/0_Brenau_0_416_0_2_2

New Line.l(r:p1ulv56102-udm13675) Units=km Length=0.0208642 bus1=udm13675.1.2 bus2=p1ulv56102.1.2 switch=n enabled=y phases=2 Linecode=1P_UG_AL_1/0_Brenau_0_416_0_2_2

New Line.l(r:udm13675-udt3476lv) Units=km Length=0.00945123 bus1=udt3476lv.1.2 bus2=udm13675.1.2 switch=n enabled=y phases=2 Linecode=1P_UG_AL_1/0_Brenau_0_416_0_2_2

New Line.l(r:p1ulv7673-udm13677) Units=km Length=0.0203991 bus1=udm13677.1.2 bus2=p1ulv7673.1.2 switch=n enabled=y phases=2 Linecode=1P_OH_AL_2/0_Rucina_0_416_0_2_2

New Line.l(r:udm13677-udt3478lv) Units=km Length=0.0158405 bus1=udt3478lv.1.2 bus2=udm13677.1.2 switch=n enabled=y phases=2 Linecode=1P_OH_AL_2/0_Rucina_0_416_0_2_2

New Line.l(r:p1ulv51128-udm13678) Units=km Length=0.0138701 bus1=udm13678.1.2 bus2=p1ulv51128.1.2 switch=n enabled=y phases=2 Linecode=1P_OH_AL_2/0_Rucina_0_416_0_2_2

New Line.l(r:p1ulv53676-udm13678) Units=km Length=0.0168982 bus1=udm13678.1.2 bus2=p1ulv53676.1.2 switch=n enabled=y phases=2 Linecode=1P_OH_AL_2/0_Rucina_0_416_0_2_2

New Line.l(r:udm13678-udt3478lv) Units=km Length=0.0117169 bus1=udt3478lv.1.2 bus2=udm13678.1.2 switch=n enabled=y phases=2 Linecode=1P_OH_AL_2/0_Rucina_0_416_0_2_2

New Line.l(r:p1ulv7674-udt3479lv) Units=km Length=0.0350048 bus1=udt3479lv.1.2 bus2=p1ulv7674.1.2 switch=n enabled=y phases=2 Linecode=1P_OH_AL_4/0_Zuzara_0_416_0_2_2

New Line.l(r:p1ulv7675-udt3480lv) Units=km Length=0.0373719 bus1=udt3480lv.1.2 bus2=p1ulv7675.1.2 switch=n enabled=y phases=2 Linecode=1P_UG_AL_1/0_Brenau_0_416_0_2_2

New Line.l(r:p1ulv7676-udt3481lv) Units=km Length=0.0423467 bus1=udt3481lv.1.2 bus2=p1ulv7676.1.2 switch=n enabled=y phases=2 Linecode=1P_OH_AL_4/0_Zuzara_0_416_0_2_2

New Line.l(r:p1ulv55362-udm13683) Units=km Length=0.0475372 bus1=udm13683.1.2 bus2=p1ulv55362.1.2 switch=n enabled=y phases=2 Linecode=1P_OH_AL_4/0_Zuzara_0_416_0_2_2

New Line.l(r:udm13683-udt3481lv) Units=km Length=0.0100754 bus1=udt3481lv.1.2 bus2=udm13683.1.2 switch=n enabled=y phases=2 Linecode=1P_OH_AL_2/0_Rucina_0_416_0_2_2

New Line.l(r:p1ulv9514-udt4437lv) Units=km Length=0.0340883 bus1=udt4437lv.1.2 bus2=p1ulv9514.1.2 switch=n enabled=y phases=2 Linecode=1P_UG_AL_4/0_Sweetbriar_0_416_0_2_2

New Line.l(r:p1ulv12560-udm21105) Units=km Length=0.028233 bus1=udm21105.1.2 bus2=p1ulv12560.1.2 switch=n enabled=y phases=2 Linecode=1P_UG_AL_1/0_Brenau_0_416_0_2_2

New Line.l(r:p1ulv12562-udm21105) Units=km Length=0.0285685 bus1=udm21105.1.2 bus2=p1ulv12562.1.2 switch=n enabled=y phases=2 Linecode=1P_UG_AL_1/0_Brenau_0_416_0_2_2

New Line.l(r:p1ulv12563-udm21107) Units=km Length=0.0298041 bus1=udm21107.1.2 bus2=p1ulv12563.1.2 switch=n enabled=y phases=2 Linecode=1P_UG_AL_1/0_Brenau_0_416_0_2_2

New Line.l(r:p1ulv12564-udm21107) Units=km Length=0.0291738 bus1=udm21107.1.2 bus2=p1ulv12564.1.2 switch=n enabled=y phases=2 Linecode=1P_UG_AL_1/0_Brenau_0_416_0_2_2

New Line.l(r:udm21105-udm21107) Units=km Length=0.00859694 bus1=udm21105.1.2 bus2=udm21107.1.2 switch=n enabled=y phases=2 Linecode=1P_UG_AL_1/0_Brenau_0_416_0_2_2

New Line.l(r:udm21105-udt5601lv) Units=km Length=0.060384900000000005 bus1=udt5601lv.1.2 bus2=udm21105.1.2 switch=n enabled=y phases=2 Linecode=1P_UG_AL_4/0_Sweetbriar_0_416_0_2_2

New Line.l(r:p1ulv12567-udm21110) Units=km Length=0.0205353 bus1=udm21110.1.2 bus2=p1ulv12567.1.2 switch=n enabled=y phases=2 Linecode=1P_UG_AL_1/0_Brenau_0_416_0_2_2

New Line.l(r:p1ulv12566-udm21109) Units=km Length=0.0296985 bus1=udm21109.1.2 bus2=p1ulv12566.1.2 switch=n enabled=y phases=2 Linecode=1P_UG_AL_1/0_Brenau_0_416_0_2_2

New Line.l(r:p1ulv12568-udm21109) Units=km Length=0.02533 bus1=udm21109.1.2 bus2=p1ulv12568.1.2 switch=n enabled=y phases=2 Linecode=1P_UG_AL_1/0_Brenau_0_416_0_2_2

New Line.l(r:udm21109-udm21110) Units=km Length=0.00934768 bus1=udm21110.1.2 bus2=udm21109.1.2 switch=n enabled=y phases=2 Linecode=1P_UG_AL_1/0_Brenau_0_416_0_2_2

New Line.l(r:udm21110-udt5601lv) Units=km Length=0.009327 bus1=udt5601lv.1.2 bus2=udm21110.1.2 switch=n enabled=y phases=2 Linecode=1P_UG_AL_1/0_Brenau_0_416_0_2_2

New Line.l(r:p1ulv12569-udt5602lv) Units=km Length=0.0437138 bus1=udt5602lv.1.2 bus2=p1ulv12569.1.2 switch=n enabled=y phases=2 Linecode=1P_UG_AL_1/0_Brenau_0_416_0_2_2

New Line.l(r:p1ulv12570-udt5602lv) Units=km Length=0.0477364 bus1=udt5602lv.1.2 bus2=p1ulv12570.1.2 switch=n enabled=y phases=2 Linecode=1P_UG_AL_1/0_Brenau_0_416_0_2_2

New Line.l(r:p1ulv12571-udt5602lv) Units=km Length=0.0517873 bus1=udt5602lv.1.2 bus2=p1ulv12571.1.2 switch=n enabled=y phases=2 Linecode=1P_UG_AL_1/0_Brenau_0_416_0_2_2

New Line.l(r:p1ulv12572-udt5602lv) Units=km Length=0.0565112 bus1=udt5602lv.1.2 bus2=p1ulv12572.1.2 switch=n enabled=y phases=2 Linecode=1P_UG_AL_1/0_Brenau_0_416_0_2_2

New Line.l(r:p1ulv12574-udt5602lv) Units=km Length=0.0607159 bus1=udt5602lv.1.2 bus2=p1ulv12574.1.2 switch=n enabled=y phases=2 Linecode=1P_UG_AL_1/0_Brenau_0_416_0_2_2

New Line.l(r:p1ulv12565-udm21112) Units=km Length=0.0238077 bus1=udm21112.1.2 bus2=p1ulv12565.1.2 switch=n enabled=y phases=2 Linecode=1P_UG_AL_1/0_Brenau_0_416_0_2_2

New Line.l(r:udm21112-udt5602lv) Units=km Length=0.0189705 bus1=udt5602lv.1.2 bus2=udm21112.1.2 switch=n enabled=y phases=2 Linecode=1P_UG_AL_1/0_Brenau_0_416_0_2_2

New Line.l(r:p1ulv12573-udm21117) Units=km Length=0.0648199 bus1=udm21117.1.2 bus2=p1ulv12573.1.2 switch=n enabled=y phases=2 Linecode=1P_UG_AL_1/0_Brenau_0_416_0_2_2

New Line.l(r:udm21117-udt5602lv) Units=km Length=0.00973347 bus1=udt5602lv.1.2 bus2=udm21117.1.2 switch=n enabled=y phases=2 Linecode=1P_UG_AL_1/0_Brenau_0_416_0_2_2

New Line.l(r:p1ulv12589-udt5603lv) Units=km Length=0.0748748 bus1=udt5603lv.1.2 bus2=p1ulv12589.1.2 switch=n enabled=y phases=2 Linecode=1P_UG_AL_1/0_Brenau_0_416_0_2_2

New Line.l(r:p1ulv12575-udm21119) Units=km Length=0.0218213 bus1=udm21119.1.2 bus2=p1ulv12575.1.2 switch=n enabled=y phases=2 Linecode=1P_UG_AL_1/0_Brenau_0_416_0_2_2

New Line.l(r:p1ulv12576-udm21119) Units=km Length=0.01615 bus1=udm21119.1.2 bus2=p1ulv12576.1.2 switch=n enabled=y phases=2 Linecode=1P_UG_AL_1/0_Brenau_0_416_0_2_2

New Line.l(r:p1ulv12577-udm21119) Units=km Length=0.0352095 bus1=udm21119.1.2 bus2=p1ulv12577.1.2 switch=n enabled=y phases=2 Linecode=1P_UG_AL_1/0_Brenau_0_416_0_2_2

New Line.l(r:p1ulv12578-udm21119) Units=km Length=0.0283269 bus1=udm21119.1.2 bus2=p1ulv12578.1.2 switch=n enabled=y phases=2 Linecode=1P_UG_AL_1/0_Brenau_0_416_0_2_2

New Line.l(r:p1ulv12579-udm21119) Units=km Length=0.0484404 bus1=udm21119.1.2 bus2=p1ulv12579.1.2 switch=n enabled=y phases=2 Linecode=1P_UG_AL_1/0_Brenau_0_416_0_2_2

New Line.l(r:p1ulv12580-udm21119) Units=km Length=0.0418022 bus1=udm21119.1.2 bus2=p1ulv12580.1.2 switch=n enabled=y phases=2 Linecode=1P_UG_AL_1/0_Brenau_0_416_0_2_2

New Line.l(r:udm21119-udt5603lv) Units=km Length=0.016748800000000005 bus1=udt5603lv.1.2 bus2=udm21119.1.2 switch=n enabled=y phases=2 Linecode=1P_UG_AL_4/0_Sweetbriar_0_416_0_2_2

New Line.l(r:p1ulv12584-udm21125) Units=km Length=0.0597361 bus1=udm21125.1.2 bus2=p1ulv12584.1.2 switch=n enabled=y phases=2 Linecode=1P_UG_AL_1/0_Brenau_0_416_0_2_2

New Line.l(r:p1ulv12585-udm21125) Units=km Length=0.054758 bus1=udm21125.1.2 bus2=p1ulv12585.1.2 switch=n enabled=y phases=2 Linecode=1P_UG_AL_1/0_Brenau_0_416_0_2_2

New Line.l(r:p1ulv12586-udm21125) Units=km Length=0.0699762 bus1=udm21125.1.2 bus2=p1ulv12586.1.2 switch=n enabled=y phases=2 Linecode=1P_UG_AL_1/0_Brenau_0_416_0_2_2

New Line.l(r:p1ulv12587-udm21125) Units=km Length=0.0651748 bus1=udm21125.1.2 bus2=p1ulv12587.1.2 switch=n enabled=y phases=2 Linecode=1P_UG_AL_1/0_Brenau_0_416_0_2_2

New Line.l(r:p1ulv12591-udm21131) Units=km Length=0.0304808 bus1=udm21131.1.2 bus2=p1ulv12591.1.2 switch=n enabled=y phases=2 Linecode=1P_UG_AL_1/0_Brenau_0_416_0_2_2
