New Load.load_p1ulv4378 conn=wye bus1=p1ulv4378.1.2 kV=0.2080002494301389 Vminpu=0.8 Vmaxpu=1.2 model=1 kW=15.2202 kvar=3.0905934265816724 Phases=2

New Load.load_p1ulv5237 conn=wye bus1=p1ulv5237.1.2.3 kV=0.48 Vminpu=0.8 Vmaxpu=1.2 model=1 kW=58.77060000000001 kvar=11.933879320656812 Phases=3

New Load.load_p1ulv5238 conn=wye bus1=p1ulv5238.1.2.3 kV=0.48 Vminpu=0.8 Vmaxpu=1.2 model=1 kW=58.64059999999999 kvar=11.90748169477439 Phases=3

New Load.load_p1ulv5239 conn=wye bus1=p1ulv5239.1.2.3 kV=0.48 Vminpu=0.8 Vmaxpu=1.2 model=1 kW=45.5905 kvar=9.257545867634573 Phases=3

New Load.load_p1ulv5240 conn=wye bus1=p1ulv5240.1.2.3 kV=0.48 Vminpu=0.8 Vmaxpu=1.2 model=1 kW=43.440400000000004 kvar=8.820949441405398 Phases=3

New Load.load_p1ulv5241 conn=wye bus1=p1ulv5241.1.2.3 kV=0.48 Vminpu=0.8 Vmaxpu=1.2 model=1 kW=64.8606 kvar=13.170506563917899 Phases=3

New Load.load_p1ulv5724 conn=wye bus1=p1ulv5724.1.2 kV=0.2080002494301389 Vminpu=0.8 Vmaxpu=1.2 model=1 kW=13.7801 kvar=2.7981686494026423 Phases=2

New Load.load_p1ulv5725 conn=wye bus1=p1ulv5725.1.2 kV=0.2080002494301389 Vminpu=0.8 Vmaxpu=1.2 model=1 kW=16.4502 kvar=3.3403555791614967 Phases=2

New Load.load_p1ulv5726 conn=wye bus1=p1ulv5725.1.2 kV=0.2080002494301389 Vminpu=0.8 Vmaxpu=1.2 model=1 kW=17.0402 kvar=3.4601601889355593 Phases=2

New Load.load_p1ulv5727 conn=wye bus1=p1ulv5727.1.2 kV=0.2080002494301389 Vminpu=0.8 Vmaxpu=1.2 model=1 kW=15.7202 kvar=3.1921227568986743 Phases=2

New Load.load_p1ulv5728 conn=wye bus1=p1ulv5727.1.2 kV=0.2080002494301389 Vminpu=0.8 Vmaxpu=1.2 model=1 kW=16.6202 kvar=3.383562043575448 Phases=2

New Load.load_p1ulv5729 conn=wye bus1=p1ulv5729.1.2 kV=0.2080002494301389 Vminpu=0.8 Vmaxpu=1.2 model=1 kW=15.9602 kvar=3.240856835450835 Phases=2

New Load.load_p1ulv5730 conn=wye bus1=p1ulv5730.1.2 kV=0.2080002494301389 Vminpu=0.8 Vmaxpu=1.2 model=1 kW=18.6902 kvar=3.78541640224595 Phases=2

New Load.load_p1ulv5731 conn=wye bus1=p1ulv5731.1.2 kV=0.2080002494301389 Vminpu=0.8 Vmaxpu=1.2 model=1 kW=15.3602 kvar=3.1190216390704326 Phases=2

New Load.load_p1ulv5732 conn=wye bus1=p1ulv5732.1.2 kV=0.2080002494301389 Vminpu=0.8 Vmaxpu=1.2 model=1 kW=17.5402 kvar=3.5616895192525613 Phases=2

New Load.load_p1ulv5733 conn=wye bus1=p1ulv5733.1.2 kV=0.2080002494301389 Vminpu=0.8 Vmaxpu=1.2 model=1 kW=12.8501 kvar=2.609324095013018 Phases=2

New Load.load_p1ulv5734 conn=wye bus1=p1ulv5733.1.2 kV=0.2080002494301389 Vminpu=0.8 Vmaxpu=1.2 model=1 kW=14.090100000000001 kvar=2.8611168341991844 Phases=2

New Load.load_p1ulv5735 conn=wye bus1=p1ulv5735.1.2 kV=0.2080002494301389 Vminpu=0.8 Vmaxpu=1.2 model=1 kW=11.8301 kvar=2.402204261166334 Phases=2

New Load.load_p1ulv5736 conn=wye bus1=p1ulv5736.1.2 kV=0.2080002494301389 Vminpu=0.8 Vmaxpu=1.2 model=1 kW=12.4001 kvar=2.5179476977277164 Phases=2

New Load.load_p1ulv5737 conn=wye bus1=p1ulv5737.1.2 kV=0.2080002494301389 Vminpu=0.8 Vmaxpu=1.2 model=1 kW=11.8001 kvar=2.402279784262202 Phases=2

New Load.load_p1ulv5738 conn=wye bus1=p1ulv5738.1.2 kV=0.2080002494301389 Vminpu=0.8 Vmaxpu=1.2 model=1 kW=11.3701 kvar=2.3087972772746923 Phases=2

New Load.load_p1ulv5739 conn=wye bus1=p1ulv5739.1.2 kV=0.2080002494301389 Vminpu=0.8 Vmaxpu=1.2 model=1 kW=2.74003 kvar=0.5606733585797765 Phases=2

New Load.load_p1ulv5740 conn=wye bus1=p1ulv5740.1.2 kV=0.2080002494301389 Vminpu=0.8 Vmaxpu=1.2 model=1 kW=1.93002 kvar=0.38988294196352385 Phases=2

New Load.load_p1ulv5741 conn=wye bus1=p1ulv5741.1.2 kV=0.2080002494301389 Vminpu=0.8 Vmaxpu=1.2 model=1 kW=2.7800300000000004 kvar=0.5703014980185626 Phases=2

New Load.load_p1ulv5806 conn=wye bus1=p1ulv5806.1.2 kV=0.2080002494301389 Vminpu=0.8 Vmaxpu=1.2 model=1 kW=18.3002 kvar=3.7160141013344057 Phases=2

New Load.load_p1ulv5807 conn=wye bus1=p1ulv5807.1.2 kV=0.2080002494301389 Vminpu=0.8 Vmaxpu=1.2 model=1 kW=12.3601 kvar=0.9894153325398525 Phases=2

New Load.load_p1ulv5808 conn=wye bus1=p1ulv5808.1.2 kV=0.2080002494301389 Vminpu=0.8 Vmaxpu=1.2 model=1 kW=9.06 kvar=0.32002595041741205 Phases=2

New Load.load_p1ulv5809 conn=wye bus1=p1ulv5809.1.2 kV=0.2080002494301389 Vminpu=0.8 Vmaxpu=1.2 model=1 kW=3.43003 kvar=0.70007864149034 Phases=2

New Load.load_p1ulv7629 conn=wye bus1=p1ulv7629.1.2.3 kV=0.48 Vminpu=0.8 Vmaxpu=1.2 model=1 kW=126.761 kvar=25.73991888062702 Phases=3

New Load.load_p1ulv7630 conn=wye bus1=p1ulv7630.1.2 kV=0.2080002494301389 Vminpu=0.8 Vmaxpu=1.2 model=1 kW=10.26 kvar=0.5604479951096709 Phases=2

New Load.load_p1ulv7631 conn=wye bus1=p1ulv7631.1.2 kV=0.2080002494301389 Vminpu=0.8 Vmaxpu=1.2 model=1 kW=4.86005 kvar=0.9894153325398525 Phases=2

New Load.load_p1ulv7632 conn=wye bus1=p1ulv7632.1.2.3 kV=0.48 Vminpu=0.8 Vmaxpu=1.2 model=1 kW=22.8702 kvar=4.643992180431805 Phases=3

New Load.load_p1ulv7636 conn=wye bus1=p1ulv7636.1.2 kV=0.2080002494301389 Vminpu=0.8 Vmaxpu=1.2 model=1 kW=4.14004 kvar=1.3592956687066866 Phases=2

New Load.load_p1ulv7637 conn=wye bus1=p1ulv7637.1.2.3 kV=0.48 Vminpu=0.8 Vmaxpu=1.2 model=1 kW=26.160300000000003 kvar=5.312075479783743 Phases=3

New Load.load_p1ulv7638 conn=wye bus1=p1ulv7638.1.2.3 kV=0.48 Vminpu=0.8 Vmaxpu=1.2 model=1 kW=40.57039999999999 kvar=8.238171085385806 Phases=3

New Load.load_p1ulv7639 conn=wye bus1=p1ulv7639.1.2.3 kV=0.48 Vminpu=0.8 Vmaxpu=1.2 model=1 kW=33.7603 kvar=6.855321300602176 Phases=3

New Load.load_p1ulv7640 conn=wye bus1=p1ulv7640.1.2.3 kV=0.48 Vminpu=0.8 Vmaxpu=1.2 model=1 kW=39.0404 kvar=7.92749133461578 Phases=3

New Load.load_p1ulv7641 conn=wye bus1=p1ulv7641.1.2.3 kV=0.48 Vminpu=0.8 Vmaxpu=1.2 model=1 kW=24.1202 kvar=4.897815506224311 Phases=3

New Load.load_p1ulv7642 conn=wye bus1=p1ulv7642.1.2.3 kV=0.48 Vminpu=0.8 Vmaxpu=1.2 model=1 kW=51.9705 kvar=10.553060122479522 Phases=3

New Load.load_p1ulv7643 conn=wye bus1=p1ulv7643.1.2.3 kV=0.48 Vminpu=0.8 Vmaxpu=1.2 model=1 kW=27.9203 kvar=5.6694587224995905 Phases=3

New Load.load_p1ulv7644 conn=wye bus1=p1ulv7644.1.2.3 kV=0.48 Vminpu=0.8 Vmaxpu=1.2 model=1 kW=28.5503 kvar=5.797385678699013 Phases=3

New Load.load_p1ulv7645 conn=wye bus1=p1ulv7645.1.2.3 kV=0.48 Vminpu=0.8 Vmaxpu=1.2 model=1 kW=35.3704 kvar=7.182266050088985 Phases=3

New Load.load_p1ulv7646 conn=wye bus1=p1ulv7646.1.2.3 kV=0.48 Vminpu=0.8 Vmaxpu=1.2 model=1 kW=24.8302 kvar=5.0419871552744535 Phases=3

New Load.load_p1ulv7647 conn=wye bus1=p1ulv7647.1.2.3 kV=0.48 Vminpu=0.8 Vmaxpu=1.2 model=1 kW=36.0904 kvar=7.328468285745468 Phases=3

New Load.load_p1ulv7648 conn=wye bus1=p1ulv7648.1.2 kV=0.2080002494301389 Vminpu=0.8 Vmaxpu=1.2 model=1 kW=7.94008 kvar=1.608142720096362 Phases=2

New Load.load_p1ulv7649 conn=wye bus1=p1ulv7649.1.2 kV=0.2080002494301389 Vminpu=0.8 Vmaxpu=1.2 model=1 kW=11.5 kvar=0.8101474048239126 Phases=2

New Load.load_p1ulv7650 conn=wye bus1=p1ulv7650.1.2 kV=0.2080002494301389 Vminpu=0.8 Vmaxpu=1.2 model=1 kW=3.31003 kvar=0.6703963496338274 Phases=2

New Load.load_p1ulv7651 conn=wye bus1=p1ulv7651.1.2 kV=0.2080002494301389 Vminpu=0.8 Vmaxpu=1.2 model=1 kW=2.94003 kvar=0.6000682817178988 Phases=2

New Load.load_p1ulv7652 conn=wye bus1=p1ulv7652.1.2.3 kV=0.48 Vminpu=0.8 Vmaxpu=1.2 model=1 kW=40.48040000000001 kvar=8.219895805928749 Phases=3

New Load.load_p1ulv7653 conn=wye bus1=p1ulv7653.1.2 kV=0.2080002494301389 Vminpu=0.8 Vmaxpu=1.2 model=1 kW=4.02004 kvar=0.8205013197951115 Phases=2

New Load.load_p1ulv7654 conn=wye bus1=p1ulv7654.1.2 kV=0.2080002494301389 Vminpu=0.8 Vmaxpu=1.2 model=1 kW=2.34002 kvar=0.48003687420401825 Phases=2

New Load.load_p1ulv7655 conn=wye bus1=p1ulv7655.1.2 kV=0.2080002494301389 Vminpu=0.8 Vmaxpu=1.2 model=1 kW=1.38001 kvar=0.28022298226153225 Phases=2

New Load.load_p1ulv7656 conn=wye bus1=p1ulv7656.1.2 kV=0.2080002494301389 Vminpu=0.8 Vmaxpu=1.2 model=1 kW=6.44006 kvar=1.3110758338857833 Phases=2

New Load.load_p1ulv7657 conn=wye bus1=p1ulv7657.1.2 kV=0.2080002494301389 Vminpu=0.8 Vmaxpu=1.2 model=1 kW=1.52002 kvar=0.31024030012511455 Phases=2

New Load.load_p1ulv7658 conn=wye bus1=p1ulv7658.1.2 kV=0.2080002494301389 Vminpu=0.8 Vmaxpu=1.2 model=1 kW=1.75002 kvar=0.3498246235335853 Phases=2

New Load.load_p1ulv7659 conn=wye bus1=p1ulv7659.1.2 kV=0.2080002494301389 Vminpu=0.8 Vmaxpu=1.2 model=1 kW=5.69006 kvar=1.1613570361770957 Phases=2

New Load.load_p1ulv7660 conn=wye bus1=p1ulv7660.1.2 kV=0.2080002494301389 Vminpu=0.8 Vmaxpu=1.2 model=1 kW=11.06 kvar=0.7191629458284491 Phases=2

New Load.load_p1ulv7661 conn=wye bus1=p1ulv7661.1.2 kV=0.2080002494301389 Vminpu=0.8 Vmaxpu=1.2 model=1 kW=11.45 kvar=0.8000206635310265 Phases=2

New Load.load_p1ulv7662 conn=wye bus1=p1ulv7662.1.2.3 kV=0.48 Vminpu=0.8 Vmaxpu=1.2 model=1 kW=32.4003 kvar=6.5791615221399296 Phases=3

New Load.load_p1ulv7663 conn=wye bus1=p1ulv7663.1.2 kV=0.2080002494301389 Vminpu=0.8 Vmaxpu=1.2 model=1 kW=11.53 kvar=0.8204408116683792 Phases=2

New Load.load_p1ulv7664 conn=wye bus1=p1ulv7664.1.2 kV=0.2080002494301389 Vminpu=0.8 Vmaxpu=1.2 model=1 kW=3.97004 kvar=0.8102961810428216 Phases=2

New Load.load_p1ulv7665 conn=wye bus1=p1ulv7665.1.2 kV=0.2080002494301389 Vminpu=0.8 Vmaxpu=1.2 model=1 kW=4.53005 kvar=0.9198658856050712 Phases=2

New Load.load_p1ulv7666 conn=wye bus1=p1ulv7666.1.2 kV=0.2080002494301389 Vminpu=0.8 Vmaxpu=1.2 model=1 kW=2.98003 kvar=0.6097828960881785 Phases=2

New Load.load_p1ulv7667 conn=wye bus1=p1ulv7667.1.2 kV=0.2080002494301389 Vminpu=0.8 Vmaxpu=1.2 model=1 kW=12.37 kvar=0.9889058302206326 Phases=2

New Load.load_p1ulv7668 conn=wye bus1=p1ulv7668.1.2 kV=0.2080002494301389 Vminpu=0.8 Vmaxpu=1.2 model=1 kW=4.22004 kvar=0.8591212600552419 Phases=2

New Load.load_p1ulv7669 conn=wye bus1=p1ulv7669.1.2 kV=0.2080002494301389 Vminpu=0.8 Vmaxpu=1.2 model=1 kW=4.26004 kvar=0.8605698013918458 Phases=2

New Load.load_p1ulv7670 conn=wye bus1=p1ulv7670.1.2 kV=0.2080002494301389 Vminpu=0.8 Vmaxpu=1.2 model=1 kW=12.0601 kvar=0.9307188593475932 Phases=2

New Load.load_p1ulv7671 conn=wye bus1=p1ulv7671.1.2 kV=0.2080002494301389 Vminpu=0.8 Vmaxpu=1.2 model=1 kW=5.31005 kvar=1.0810269208245273 Phases=2

New Load.load_p1ulv7673 conn=wye bus1=p1ulv7673.1.2 kV=0.2080002494301389 Vminpu=0.8 Vmaxpu=1.2 model=1 kW=12.3 kvar=0.9696571100672596 Phases=2

New Load.load_p1ulv7674 conn=wye bus1=p1ulv7674.1.2 kV=0.2080002494301389 Vminpu=0.8 Vmaxpu=1.2 model=1 kW=4.39004 kvar=0.8891359869084231 Phases=2

New Load.load_p1ulv7675 conn=wye bus1=p1ulv7675.1.2 kV=0.2080002494301389 Vminpu=0.8 Vmaxpu=1.2 model=1 kW=4.85005 kvar=0.9899086641108747 Phases=2

New Load.load_p1ulv7676 conn=wye bus1=p1ulv7676.1.2 kV=0.2080002494301389 Vminpu=0.8 Vmaxpu=1.2 model=1 kW=4.60005 kvar=0.9292551513348608 Phases=2

New Load.load_p1ulv7677 conn=wye bus1=p1ulv7677.1.2.3 kV=0.48 Vminpu=0.8 Vmaxpu=1.2 model=1 kW=30.9203 kvar=6.278634704401603 Phases=3

New Load.load_p1ulv7678 conn=wye bus1=p1ulv7678.1.2.3 kV=0.48 Vminpu=0.8 Vmaxpu=1.2 model=1 kW=30.630299999999995 kvar=6.21974769281774 Phases=3

New Load.load_p1ulv7679 conn=wye bus1=p1ulv7679.1.2.3 kV=0.48 Vminpu=0.8 Vmaxpu=1.2 model=1 kW=30.520300000000002 kvar=6.197411240148002 Phases=3

New Load.load_p1ulv7681 conn=wye bus1=p1ulv7681.1.2.3 kV=0.48 Vminpu=0.8 Vmaxpu=1.2 model=1 kW=28.380299999999995 kvar=5.762865706391231 Phases=3

New Load.load_p1ulv7682 conn=wye bus1=p1ulv7682.1.2.3 kV=0.48 Vminpu=0.8 Vmaxpu=1.2 model=1 kW=29.290300000000002 kvar=5.947649087568177 Phases=3

New Load.load_p1ulv7691 conn=wye bus1=p1ulv7691.1.2.3 kV=0.48 Vminpu=0.8 Vmaxpu=1.2 model=1 kW=39.2904 kvar=7.978255999774281 Phases=3

New Load.load_p1ulv7692 conn=wye bus1=p1ulv7692.1.2.3 kV=0.48 Vminpu=0.8 Vmaxpu=1.2 model=1 kW=52.97050000000001 kvar=10.756118783113525 Phases=3

New Load.load_p1ulv7693 conn=wye bus1=p1ulv7693.1.2.3 kV=0.48 Vminpu=0.8 Vmaxpu=1.2 model=1 kW=60.4006 kvar=12.26486493749024 Phases=3

New Load.load_p1ulv7694 conn=wye bus1=p1ulv7694.1.2.3 kV=0.48 Vminpu=0.8 Vmaxpu=1.2 model=1 kW=143.961 kvar=29.23252784353189 Phases=3

New Load.load_p1ulv9089 conn=wye bus1=p1ulv9089.1.2.3 kV=0.48 Vminpu=0.8 Vmaxpu=1.2 model=1 kW=44.3604 kvar=9.007763409188684 Phases=3

New Load.load_p1ulv9090 conn=wye bus1=p1ulv9090.1.2.3 kV=0.48 Vminpu=0.8 Vmaxpu=1.2 model=1 kW=198.052 kvar=40.21617385588581 Phases=3

New Load.load_p1ulv9091 conn=wye bus1=p1ulv9091.1.2.3 kV=0.48 Vminpu=0.8 Vmaxpu=1.2 model=1 kW=28.0703 kvar=5.699917521594691 Phases=3

New Load.load_p1ulv9092 conn=wye bus1=p1ulv9092.1.2.3 kV=0.48 Vminpu=0.8 Vmaxpu=1.2 model=1 kW=42.5404 kvar=8.638196646834794 Phases=3

New Load.load_p1ulv9093 conn=wye bus1=p1ulv9093.1.2.3 kV=0.48 Vminpu=0.8 Vmaxpu=1.2 model=1 kW=31.4003 kvar=6.376102861505924 Phases=3

New Load.load_p1ulv9511 conn=wye bus1=p1ulv9511.1.2.3 kV=0.48 Vminpu=0.8 Vmaxpu=1.2 model=1 kW=36.7504 kvar=7.462487001763911 Phases=3

New Load.load_p1ulv9512 conn=wye bus1=p1ulv9512.1.2.3 kV=0.48 Vminpu=0.8 Vmaxpu=1.2 model=1 kW=51.4505 kvar=10.447469618949839 Phases=3

New Load.load_p1ulv9513 conn=wye bus1=p1ulv9513.1.2.3 kV=0.48 Vminpu=0.8 Vmaxpu=1.2 model=1 kW=43.4904 kvar=8.831102374437101 Phases=3

New Load.load_p1ulv9514 conn=wye bus1=p1ulv9514.1.2 kV=0.2080002494301389 Vminpu=0.8 Vmaxpu=1.2 model=1 kW=17.8502 kvar=3.633967051553559 Phases=2

New Load.load_p1ulv12557 conn=wye bus1=p1ulv12557.1.2.3 kV=0.48 Vminpu=0.8 Vmaxpu=1.2 model=1 kW=21.330200000000005 kvar=4.3312818430554385 Phases=3

New Load.load_p1ulv12558 conn=wye bus1=p1ulv12558.1.2.3 kV=0.48 Vminpu=0.8 Vmaxpu=1.2 model=1 kW=46.1905 kvar=9.379381064014975 Phases=3

New Load.load_p1ulv12559 conn=wye bus1=p1ulv12559.1.2.3 kV=0.48 Vminpu=0.8 Vmaxpu=1.2 model=1 kW=36.220400000000005 kvar=7.354865911627889 Phases=3

New Load.load_p1ulv12560 conn=wye bus1=p1ulv12560.1.2 kV=0.2080002494301389 Vminpu=0.8 Vmaxpu=1.2 model=1 kW=2.54003 kvar=0.5197487439894416 Phases=2

New Load.load_p1ulv12561 conn=wye bus1=p1ulv12560.1.2 kV=0.2080002494301389 Vminpu=0.8 Vmaxpu=1.2 model=1 kW=2.60003 kvar=0.5306733382023273 Phases=2

New Load.load_p1ulv12562 conn=wye bus1=p1ulv12562.1.2 kV=0.2080002494301389 Vminpu=0.8 Vmaxpu=1.2 model=1 kW=2.1000200000000007 kvar=0.4297125456599755 Phases=2

New Load.load_p1ulv12563 conn=wye bus1=p1ulv12563.1.2 kV=0.2080002494301389 Vminpu=0.8 Vmaxpu=1.2 model=1 kW=3.09003 kvar=0.6306836979747686 Phases=2

New Load.load_p1ulv12564 conn=wye bus1=p1ulv12564.1.2 kV=0.2080002494301389 Vminpu=0.8 Vmaxpu=1.2 model=1 kW=1.92002 kvar=0.38987668959050087 Phases=2

New Load.load_p1ulv12565 conn=wye bus1=p1ulv12565.1.2 kV=0.2080002494301389 Vminpu=0.8 Vmaxpu=1.2 model=1 kW=2.96003 kvar=0.5995091605836256 Phases=2

New Load.load_p1ulv12566 conn=wye bus1=p1ulv12566.1.2 kV=0.2080002494301389 Vminpu=0.8 Vmaxpu=1.2 model=1 kW=2.41002 kvar=0.489375433301163 Phases=2

New Load.load_p1ulv12567 conn=wye bus1=p1ulv12567.1.2 kV=0.2080002494301389 Vminpu=0.8 Vmaxpu=1.2 model=1 kW=2.86003 kvar=0.5807538611730713 Phases=2

New Load.load_p1ulv12568 conn=wye bus1=p1ulv12568.1.2 kV=0.2080002494301389 Vminpu=0.8 Vmaxpu=1.2 model=1 kW=2.74003 kvar=0.5606733585797765 Phases=2

New Load.load_p1ulv12569 conn=wye bus1=p1ulv12569.1.2 kV=0.2080002494301389 Vminpu=0.8 Vmaxpu=1.2 model=1 kW=2.27002 kvar=0.4597581053935405 Phases=2

New Load.load_p1ulv12570 conn=wye bus1=p1ulv12570.1.2 kV=0.2080002494301389 Vminpu=0.8 Vmaxpu=1.2 model=1 kW=1.93002 kvar=0.38988294196352385 Phases=2

New Load.load_p1ulv12571 conn=wye bus1=p1ulv12571.1.2 kV=0.2080002494301389 Vminpu=0.8 Vmaxpu=1.2 model=1 kW=2.27002 kvar=0.4597581053935405 Phases=2

New Load.load_p1ulv12572 conn=wye bus1=p1ulv12572.1.2 kV=0.2080002494301389 Vminpu=0.8 Vmaxpu=1.2 model=1 kW=1.76002 kvar=0.3601407008564061 Phases=2

New Load.load_p1ulv12573 conn=wye bus1=p1ulv12573.1.2 kV=0.2080002494301389 Vminpu=0.8 Vmaxpu=1.2 model=1 kW=2.33002 kvar=0.469460711936096 Phases=2

New Load.load_p1ulv12574 conn=wye bus1=p1ulv12574.1.2 kV=0.2080002494301389 Vminpu=0.8 Vmaxpu=1.2 model=1 kW=1.96002 kvar=0.40004552114526587 Phases=2

New Load.load_p1ulv12575 conn=wye bus1=p1ulv12575.1.2 kV=0.2080002494301389 Vminpu=0.8 Vmaxpu=1.2 model=1 kW=2.49002 kvar=0.5003847060932721 Phases=2

New Load.load_p1ulv12576 conn=wye bus1=p1ulv12576.1.2 kV=0.2080002494301389 Vminpu=0.8 Vmaxpu=1.2 model=1 kW=2.13002 kvar=0.4302849006959229 Phases=2

New Load.load_p1ulv12577 conn=wye bus1=p1ulv12577.1.2 kV=0.2080002494301389 Vminpu=0.8 Vmaxpu=1.2 model=1 kW=2.45002 kvar=0.500055880917707 Phases=2

New Load.load_p1ulv12578 conn=wye bus1=p1ulv12578.1.2 kV=0.2080002494301389 Vminpu=0.8 Vmaxpu=1.2 model=1 kW=2.62003 kvar=0.5306473197920009 Phases=2

New Load.load_p1ulv12579 conn=wye bus1=p1ulv12579.1.2 kV=0.2080002494301389 Vminpu=0.8 Vmaxpu=1.2 model=1 kW=2.88003 kvar=0.5802786818127376 Phases=2

New Load.load_p1ulv12580 conn=wye bus1=p1ulv12580.1.2 kV=0.2080002494301389 Vminpu=0.8 Vmaxpu=1.2 model=1 kW=2.5100300000000004 kvar=0.5096833299511698 Phases=2

New Load.load_p1ulv12581 conn=wye bus1=p1ulv12581.1.2 kV=0.2080002494301389 Vminpu=0.8 Vmaxpu=1.2 model=1 kW=3.87004 kvar=0.7898859035382418 Phases=2

New Load.load_p1ulv12582 conn=wye bus1=p1ulv12582.1.2 kV=0.2080002494301389 Vminpu=0.8 Vmaxpu=1.2 model=1 kW=3.45003 kvar=0.7005584709471337 Phases=2

New Load.load_p1ulv12583 conn=wye bus1=p1ulv12583.1.2 kV=0.2080002494301389 Vminpu=0.8 Vmaxpu=1.2 model=1 kW=4.11004 kvar=0.8302683323425464 Phases=2

New Load.load_p1ulv12584 conn=wye bus1=p1ulv12584.1.2 kV=0.2080002494301389 Vminpu=0.8 Vmaxpu=1.2 model=1 kW=2.59003 kvar=0.5299798976370255 Phases=2

New Load.load_p1ulv12585 conn=wye bus1=p1ulv12585.1.2 kV=0.2080002494301389 Vminpu=0.8 Vmaxpu=1.2 model=1 kW=2.3500200000000007 kvar=0.47964560341312734 Phases=2

New Load.load_p1ulv12586 conn=wye bus1=p1ulv12586.1.2 kV=0.2080002494301389 Vminpu=0.8 Vmaxpu=1.2 model=1 kW=2.15002 kvar=0.43994369930755917 Phases=2

New Load.load_p1ulv12587 conn=wye bus1=p1ulv12587.1.2 kV=0.2080002494301389 Vminpu=0.8 Vmaxpu=1.2 model=1 kW=2.14002 kvar=0.4300500713784323 Phases=2

New Load.load_p1ulv12588 conn=wye bus1=p1ulv12588.1.2 kV=0.2080002494301389 Vminpu=0.8 Vmaxpu=1.2 model=1 kW=2.66003 kvar=0.5401421290462703 Phases=2

New Load.load_p1ulv12589 conn=wye bus1=p1ulv12589.1.2 kV=0.2080002494301389 Vminpu=0.8 Vmaxpu=1.2 model=1 kW=2.48002 kvar=0.499683245129122 Phases=2

New Load.load_p1ulv12590 conn=wye bus1=p1ulv12590.1.2 kV=0.2080002494301389 Vminpu=0.8 Vmaxpu=1.2 model=1 kW=2.74003 kvar=0.5606733585797765 Phases=2

New Load.load_p1ulv12591 conn=wye bus1=p1ulv12591.1.2 kV=0.2080002494301389 Vminpu=0.8 Vmaxpu=1.2 model=1 kW=2.7800300000000004 kvar=0.5601303263507202 Phases=2

New Load.load_p1ulv12592 conn=wye bus1=p1ulv12592.1.2 kV=0.2080002494301389 Vminpu=0.8 Vmaxpu=1.2 model=1 kW=2.05002 kvar=0.4194813920123917 Phases=2

New Load.load_p1ulv12593 conn=wye bus1=p1ulv12593.1.2 kV=0.2080002494301389 Vminpu=0.8 Vmaxpu=1.2 model=1 kW=2.66003 kvar=0.5401421290462703 Phases=2

New Load.load_p1ulv12594 conn=wye bus1=p1ulv12594.1.2 kV=0.2080002494301389 Vminpu=0.8 Vmaxpu=1.2 model=1 kW=2.40002 kvar=0.4898507421654172 Phases=2

New Load.load_p1ulv12595 conn=wye bus1=p1ulv12595.1.2 kV=0.2080002494301389 Vminpu=0.8 Vmaxpu=1.2 model=1 kW=3.58004 kvar=0.7306960987749602 Phases=2

New Load.load_p1ulv12596 conn=wye bus1=p1ulv12596.1.2 kV=0.2080002494301389 Vminpu=0.8 Vmaxpu=1.2 model=1 kW=2.64003 kvar=0.5402110512846091 Phases=2

New Load.load_p1ulv12597 conn=wye bus1=p1ulv12597.1.2 kV=0.2080002494301389 Vminpu=0.8 Vmaxpu=1.2 model=1 kW=2.8000300000000005 kvar=0.5700337678771953 Phases=2

New Load.load_p1ulv12598 conn=wye bus1=p1ulv12598.1.2 kV=0.2080002494301389 Vminpu=0.8 Vmaxpu=1.2 model=1 kW=2.5500300000000005 kvar=0.5204681994500374 Phases=2

New Load.load_p1ulv12599 conn=wye bus1=p1ulv12599.1.2 kV=0.2080002494301389 Vminpu=0.8 Vmaxpu=1.2 model=1 kW=2.89003 kvar=0.5898631429656088 Phases=2

New Load.load_p1ulv12600 conn=wye bus1=p1ulv12600.1.2 kV=0.2080002494301389 Vminpu=0.8 Vmaxpu=1.2 model=1 kW=2.58003 kvar=0.5198336154266855 Phases=2

New Load.load_p1ulv12601 conn=wye bus1=p1ulv12601.1.2 kV=0.2080002494301389 Vminpu=0.8 Vmaxpu=1.2 model=1 kW=2.86003 kvar=0.5807538611730713 Phases=2

New Load.load_p1ulv12602 conn=wye bus1=p1ulv12602.1.2 kV=0.2080002494301389 Vminpu=0.8 Vmaxpu=1.2 model=1 kW=2.98003 kvar=0.6097828960881785 Phases=2

New Load.load_p1ulv12603 conn=wye bus1=p1ulv12603.1.2 kV=0.2080002494301389 Vminpu=0.8 Vmaxpu=1.2 model=1 kW=2.93003 kvar=0.5995517424405946 Phases=2

New Load.load_p1ulv12604 conn=wye bus1=p1ulv12604.1.2.3 kV=0.48 Vminpu=0.8 Vmaxpu=1.2 model=1 kW=29.0003 kvar=5.888762075984314 Phases=3

New Load.load_p1ulv12605 conn=wye bus1=p1ulv12605.1.2 kV=0.2080002494301389 Vminpu=0.8 Vmaxpu=1.2 model=1 kW=4.47004 kvar=0.9100165868800613 Phases=2

New Load.load_p1ulv12606 conn=wye bus1=p1ulv12606.1.2 kV=0.2080002494301389 Vminpu=0.8 Vmaxpu=1.2 model=1 kW=4.02004 kvar=0.8205013197951115 Phases=2

New Load.load_p1ulv12607 conn=wye bus1=p1ulv12607.1.2 kV=0.2080002494301389 Vminpu=0.8 Vmaxpu=1.2 model=1 kW=4.97005 kvar=1.009211696284033 Phases=2

New Load.load_p1ulv12608 conn=wye bus1=p1ulv12608.1.2 kV=0.2080002494301389 Vminpu=0.8 Vmaxpu=1.2 model=1 kW=4.19004 kvar=0.8508239104029033 Phases=2

New Load.load_p1ulv12609 conn=wye bus1=p1ulv12609.1.2 kV=0.2080002494301389 Vminpu=0.8 Vmaxpu=1.2 model=1 kW=3.82004 kvar=0.7696752379912465 Phases=2

New Load.load_p1ulv12610 conn=wye bus1=p1ulv12610.1.2 kV=0.2080002494301389 Vminpu=0.8 Vmaxpu=1.2 model=1 kW=4.42004 kvar=0.8998375215150975 Phases=2

New Load.load_p1ulv12611 conn=wye bus1=p1ulv12611.1.2 kV=0.2080002494301389 Vminpu=0.8 Vmaxpu=1.2 model=1 kW=3.7100400000000002 kvar=0.7494644148777485 Phases=2

New Load.load_p1ulv12612 conn=wye bus1=p1ulv12612.1.2 kV=0.2080002494301389 Vminpu=0.8 Vmaxpu=1.2 model=1 kW=3.9800400000000002 kvar=0.8102617463034154 Phases=2

New Load.load_p1ulv12613 conn=wye bus1=p1ulv12613.1.2 kV=0.2080002494301389 Vminpu=0.8 Vmaxpu=1.2 model=1 kW=4.26004 kvar=0.8694859858061031 Phases=2

New Load.load_p1ulv12614 conn=wye bus1=p1ulv12614.1.2 kV=0.2080002494301389 Vminpu=0.8 Vmaxpu=1.2 model=1 kW=4.28004 kvar=0.8690991898599637 Phases=2

New Load.load_p1ulv12615 conn=wye bus1=p1ulv12615.1.2 kV=0.2080002494301389 Vminpu=0.8 Vmaxpu=1.2 model=1 kW=3.59004 kvar=0.7308650364566972 Phases=2

New Load.load_p1ulv12616 conn=wye bus1=p1ulv12616.1.2 kV=0.2080002494301389 Vminpu=0.8 Vmaxpu=1.2 model=1 kW=4.09004 kvar=0.8305180443395029 Phases=2

New Load.load_p1ulv12617 conn=wye bus1=p1ulv12617.1.2 kV=0.2080002494301389 Vminpu=0.8 Vmaxpu=1.2 model=1 kW=4.60005 kvar=0.9292551513348608 Phases=2

New Load.load_p1ulv12618 conn=wye bus1=p1ulv12618.1.2 kV=0.2080002494301389 Vminpu=0.8 Vmaxpu=1.2 model=1 kW=3.00003 kvar=0.6107500293370508 Phases=2

New Load.load_p1ulv12619 conn=wye bus1=p1ulv12619.1.2 kV=0.2080002494301389 Vminpu=0.8 Vmaxpu=1.2 model=1 kW=1.38001 kvar=0.28022298226153225 Phases=2

New Load.load_p1ulv12620 conn=wye bus1=p1ulv12620.1.2 kV=0.2080002494301389 Vminpu=0.8 Vmaxpu=1.2 model=1 kW=3.79004 kvar=0.7696004461493017 Phases=2

New Load.load_p1ulv16133 conn=wye bus1=p1ulv16133.1.2.3 kV=0.48 Vminpu=0.8 Vmaxpu=1.2 model=1 kW=40.1304 kvar=8.148825274706846 Phases=3

New Load.load_p1ulv16135 conn=wye bus1=p1ulv16135.1.2.3 kV=0.48 Vminpu=0.8 Vmaxpu=1.2 model=1 kW=29.4803 kvar=5.986230233088637 Phases=3

New Load.load_p1ulv16136 conn=wye bus1=p1ulv16136.1.2.3 kV=0.48 Vminpu=0.8 Vmaxpu=1.2 model=1 kW=123.551 kvar=25.08810057999186 Phases=3

New Load.load_p1ulv16137 conn=wye bus1=p1ulv16137.1.2.3 kV=0.48 Vminpu=0.8 Vmaxpu=1.2 model=1 kW=50.88049999999999 kvar=10.331726182388454 Phases=3

New Load.load_p1ulv16142 conn=wye bus1=p1ulv16142.1.2.3 kV=0.48 Vminpu=0.8 Vmaxpu=1.2 model=1 kW=69.7907 kvar=14.171606066709604 Phases=3

New Load.load_p1ulv16144 conn=wye bus1=p1ulv16144.1.2.3 kV=0.48 Vminpu=0.8 Vmaxpu=1.2 model=1 kW=105.20100000000001 kvar=21.36197415735789 Phases=3

New Load.load_p1ulv20874 conn=wye bus1=p1ulv20874.1.2 kV=0.2080002494301389 Vminpu=0.8 Vmaxpu=1.2 model=1 kW=10.090100000000001 kvar=2.048882191663167 Phases=2

New Load.load_p1ulv20875 conn=wye bus1=p1ulv20875.1.2.3 kV=0.48 Vminpu=0.8 Vmaxpu=1.2 model=1 kW=63.7906 kvar=12.953233797039513 Phases=3

New Load.load_p1ulv20876 conn=wye bus1=p1ulv20876.1.2.3 kV=0.48 Vminpu=0.8 Vmaxpu=1.2 model=1 kW=115.791 kvar=23.512365373471994 Phases=3

New Load.load_p1ulv20877 conn=wye bus1=p1ulv20877.1.2.3 kV=0.48 Vminpu=0.8 Vmaxpu=1.2 model=1 kW=55.650600000000004 kvar=11.30033629947872 Phases=3

New Load.load_p1ulv20878 conn=wye bus1=p1ulv20878.1.2.3 kV=0.48 Vminpu=0.8 Vmaxpu=1.2 model=1 kW=68.11069999999998 kvar=13.83046751684447 Phases=3

New Load.load_p1ulv20879 conn=wye bus1=p1ulv20879.1.2.3 kV=0.48 Vminpu=0.8 Vmaxpu=1.2 model=1 kW=127.661 kvar=25.92267167519762 Phases=3

New Load.load_p1ulv20880 conn=wye bus1=p1ulv20880.1.2.3 kV=0.48 Vminpu=0.8 Vmaxpu=1.2 model=1 kW=162.822 kvar=33.06241724174985 Phases=3

New Load.load_p1ulv26269 conn=wye bus1=p1ulv26269.1.2.3 kV=0.48 Vminpu=0.8 Vmaxpu=1.2 model=1 kW=28.490300000000005 kvar=5.785202159060973 Phases=3

New Load.load_p1ulv26346 conn=wye bus1=p1ulv26346.1.2 kV=0.2080002494301389 Vminpu=0.8 Vmaxpu=1.2 model=1 kW=10.1401 kvar=3.3292900576450166 Phases=2

New Load.load_p1ulv26415 conn=wye bus1=p1ulv26415.1.2.3 kV=0.48 Vminpu=0.8 Vmaxpu=1.2 model=1 kW=179.362 kvar=36.42100748863628 Phases=3

New Load.load_p1ulv26480 conn=wye bus1=p1ulv26480.1.2.3 kV=0.48 Vminpu=0.8 Vmaxpu=1.2 model=1 kW=35.400400000000005 kvar=7.188357809908006 Phases=3

New Load.load_p1ulv26715 conn=wye bus1=p1ulv26715.1.2.3 kV=0.48 Vminpu=0.8 Vmaxpu=1.2 model=1 kW=33.770300000000006 kvar=6.857351887208515 Phases=3

New Load.load_p1ulv26940 conn=wye bus1=p1ulv26940.1.2.3 kV=0.48 Vminpu=0.8 Vmaxpu=1.2 model=1 kW=93.9909 kvar=19.08566626578463 Phases=3

New Load.load_p1ulv27214 conn=wye bus1=p1ulv27214.1.2.3 kV=0.48 Vminpu=0.8 Vmaxpu=1.2 model=1 kW=50.8905 kvar=10.333756768994796 Phases=3

New Load.load_p1ulv27253 conn=wye bus1=p1ulv27253.1.2 kV=0.2080002494301389 Vminpu=0.8 Vmaxpu=1.2 model=1 kW=6.75007 kvar=1.3706601733857733 Phases=2

New Load.load_p1ulv27325 conn=wye bus1=p1ulv27325.1.2.3 kV=0.48 Vminpu=0.8 Vmaxpu=1.2 model=1 kW=33.9403 kvar=6.891871859516296 Phases=3

New Load.load_p1ulv27719 conn=wye bus1=p1ulv27719.1.2.3 kV=0.48 Vminpu=0.8 Vmaxpu=1.2 model=1 kW=32.1903 kvar=6.536519203406788 Phases=3

New Load.load_p1ulv27794 conn=wye bus1=p1ulv27794.1.2.3 kV=0.48 Vminpu=0.8 Vmaxpu=1.2 model=1 kW=23.840200000000003 kvar=4.840959081246789 Phases=3

New Load.load_p1ulv28003 conn=wye bus1=p1ulv28003.1.2.3 kV=0.48 Vminpu=0.8 Vmaxpu=1.2 model=1 kW=64.5106 kvar=13.099436032695996 Phases=3

New Load.load_p1ulv28074 conn=wye bus1=p1ulv28074.1.2 kV=0.2080002494301389 Vminpu=0.8 Vmaxpu=1.2 model=1 kW=15.310200000000002 kvar=3.108868706038733 Phases=2

New Load.load_p1ulv28151 conn=wye bus1=p1ulv28151.1.2 kV=0.2080002494301389 Vminpu=0.8 Vmaxpu=1.2 model=1 kW=3.99004 kvar=0.8102121782761024 Phases=2

New Load.load_p1ulv28299 conn=wye bus1=p1ulv28299.1.2.3 kV=0.48 Vminpu=0.8 Vmaxpu=1.2 model=1 kW=38.39039999999999 kvar=7.795503205203678 Phases=3

New Load.load_p1ulv28375 conn=wye bus1=p1ulv28375.1.2.3 kV=0.48 Vminpu=0.8 Vmaxpu=1.2 model=1 kW=82.0008 kvar=16.65097261891686 Phases=3

New Load.load_p1ulv28528 conn=wye bus1=p1ulv28528.1.2.3 kV=0.48 Vminpu=0.8 Vmaxpu=1.2 model=1 kW=24.1802 kvar=4.9099990258623505 Phases=3

New Load.load_p1ulv28731 conn=wye bus1=p1ulv28731.1.2.3 kV=0.48 Vminpu=0.8 Vmaxpu=1.2 model=1 kW=48.5105 kvar=9.850477156685866 Phases=3

New Load.load_p1ulv29025 conn=wye bus1=p1ulv29025.1.2.3 kV=0.48 Vminpu=0.8 Vmaxpu=1.2 model=1 kW=29.990300000000005 kvar=6.0897901500119795 Phases=3

New Load.load_p1ulv29366 conn=wye bus1=p1ulv29366.1.2 kV=0.2080002494301389 Vminpu=0.8 Vmaxpu=1.2 model=1 kW=4.40004 kvar=0.8911613351670004 Phases=2

New Load.load_p1ulv29496 conn=wye bus1=p1ulv29496.1.2.3 kV=0.48 Vminpu=0.8 Vmaxpu=1.2 model=1 kW=28.6403 kvar=5.815660958156074 Phases=3

New Load.load_p1ulv29572 conn=wye bus1=p1ulv29572.1.2.3 kV=0.48 Vminpu=0.8 Vmaxpu=1.2 model=1 kW=23.3002 kvar=4.7313074045044266 Phases=3

New Load.load_p1ulv29718 conn=wye bus1=p1ulv29718.1.2 kV=0.2080002494301389 Vminpu=0.8 Vmaxpu=1.2 model=1 kW=18.0802 kvar=3.6713411959949247 Phases=2

New Load.load_p1ulv29794 conn=wye bus1=p1ulv29794.1.2 kV=0.2080002494301389 Vminpu=0.8 Vmaxpu=1.2 model=1 kW=8.53009 kvar=1.7321086504875136 Phases=2

New Load.load_p1ulv29963 conn=wye bus1=p1ulv29963.1.2.3 kV=0.48 Vminpu=0.8 Vmaxpu=1.2 model=1 kW=25.9403 kvar=5.267402574444261 Phases=3

New Load.load_p1ulv29965 conn=wye bus1=p1ulv29965.1.2 kV=0.2080002494301389 Vminpu=0.8 Vmaxpu=1.2 model=1 kW=4.72005 kvar=0.9609139495179535 Phases=2

New Load.load_p1ulv30172 conn=wye bus1=p1ulv30172.1.2 kV=0.2080002494301389 Vminpu=0.8 Vmaxpu=1.2 model=1 kW=8.30008 kvar=1.689741137088585 Phases=2

New Load.load_p1ulv30301 conn=wye bus1=p1ulv30301.1.2 kV=0.2080002494301389 Vminpu=0.8 Vmaxpu=1.2 model=1 kW=3.48003 kvar=0.71028378024263 Phases=2

New Load.load_p1ulv30328 conn=wye bus1=p1ulv30328.1.2 kV=0.2080002494301389 Vminpu=0.8 Vmaxpu=1.2 model=1 kW=5.14005 kvar=1.6894527348246153 Phases=2

New Load.load_p1ulv30517 conn=wye bus1=p1ulv30517.1.2 kV=0.2080002494301389 Vminpu=0.8 Vmaxpu=1.2 model=1 kW=5.61006 kvar=1.1391712696764018 Phases=2

New Load.load_p1ulv30570 conn=wye bus1=p1ulv30570.1.2.3 kV=0.48 Vminpu=0.8 Vmaxpu=1.2 model=1 kW=22.9702 kvar=4.664298046495205 Phases=3

New Load.load_p1ulv30689 conn=wye bus1=p1ulv30689.1.2 kV=0.2080002494301389 Vminpu=0.8 Vmaxpu=1.2 model=1 kW=2.46002 kvar=0.49952836633286324 Phases=2

New Load.load_p1ulv31250 conn=wye bus1=p1ulv31250.1.2.3 kV=0.48 Vminpu=0.8 Vmaxpu=1.2 model=1 kW=41.5204 kvar=8.431076812988112 Phases=3

New Load.load_p1ulv31392 conn=wye bus1=p1ulv31392.1.2.3 kV=0.48 Vminpu=0.8 Vmaxpu=1.2 model=1 kW=29.990300000000005 kvar=6.0897901500119795 Phases=3

New Load.load_p1ulv31516 conn=wye bus1=p1ulv31516.1.2.3 kV=0.48 Vminpu=0.8 Vmaxpu=1.2 model=1 kW=46.81049999999999 kvar=9.505277433608057 Phases=3

New Load.load_p1ulv31613 conn=wye bus1=p1ulv31613.1.2.3 kV=0.48 Vminpu=0.8 Vmaxpu=1.2 model=1 kW=38.6704 kvar=7.8523596301811995 Phases=3
