New Line.l(r:p1ulv45-udm126) Units=km Length=0.022314500000000004 bus1=udm126.1.2 bus2=p1ulv45.1.2 switch=n enabled=y phases=2 Linecode=1P_UG_AL_2/0_Converse_0_416_0_2_2

New Line.l(r:udm126-udt35lv) Units=km Length=0.0185438 bus1=udt35lv.1.2 bus2=udm126.1.2 switch=n enabled=y phases=2 Linecode=1P_OH_AL_2/0_Rucina_0_416_0_2_2

New Line.l(r:p1ulv5306-udm127) Units=km Length=0.0382496 bus1=udm127.1.2 bus2=p1ulv5306.1.2 switch=n enabled=y phases=2 Linecode=1P_OH_AL_4/0_Zuzara_0_416_0_2_2

New Line.l(r:udm127-udt35lv) Units=km Length=0.0185538 bus1=udt35lv.1.2 bus2=udm127.1.2 switch=n enabled=y phases=2 Linecode=1P_OH_AL_2/0_Rucina_0_416_0_2_2

New Line.l(r:p1ulv46-udt36lv) Units=km Length=0.0424639 bus1=udt36lv.1.2 bus2=p1ulv46.1.2 switch=n enabled=y phases=2 Linecode=1P_OH_AL_4/0_Zuzara_0_416_0_2_2

New Line.l(r:p1ulv47-udt37lv) Units=km Length=0.0207324 bus1=udt37lv.1.2 bus2=p1ulv47.1.2 switch=n enabled=y phases=2 Linecode=1P_OH_AL_2/0_Rucina_0_416_0_2_2

New Line.l(r:p1ulv50-udt40lv) Units=km Length=0.0199834 bus1=udt40lv.1.2 bus2=p1ulv50.1.2 switch=n enabled=y phases=2 Linecode=1P_UG_AL_1/0_Brenau_0_416_0_2_2

New Line.l(r:p1ulv51-udt41lv) Units=km Length=0.0498939 bus1=udt41lv.1.2 bus2=p1ulv51.1.2 switch=n enabled=y phases=2 Linecode=1P_OH_AL_4/0_Zuzara_0_416_0_2_2

New Line.l(r:p1ulv33337-udt42lv) Units=km Length=0.0174079 bus1=udt42lv.1.2 bus2=p1ulv33337.1.2 switch=n enabled=y phases=2 Linecode=1P_UG_AL_2/0_Converse_0_416_0_2_2

New Line.l(r:p1ulv52-udm136) Units=km Length=0.017230000000000002 bus1=udm136.1.2 bus2=p1ulv52.1.2 switch=n enabled=y phases=2 Linecode=1P_UG_AL_4/0_Sweetbriar_0_416_0_2_2

New Line.l(r:udm136-udt42lv) Units=km Length=0.009925900000000001 bus1=udt42lv.1.2 bus2=udm136.1.2 switch=n enabled=y phases=2 Linecode=1P_UG_AL_4/0_Sweetbriar_0_416_0_2_2

New Line.l(r:p1ulv57-udt47lv) Units=km Length=0.0606393 bus1=udt47lv.1.2 bus2=p1ulv57.1.2 switch=n enabled=y phases=2 Linecode=1P_UG_AL_1/0_Brenau_0_416_0_2_2

New Line.l(r:p1ulv79-udt66lv) Units=km Length=0.0241868 bus1=udt66lv.1.2 bus2=p1ulv79.1.2 switch=n enabled=y phases=2 Linecode=1P_OH_AL_2/0_Rucina_0_416_0_2_2

New Line.l(r:p1ulv3299-udm6161) Units=km Length=0.0118002 bus1=udm6161.1.2 bus2=p1ulv3299.1.2 switch=n enabled=y phases=2 Linecode=1P_UG_AL_1/0_Brenau_0_416_0_2_2

New Line.l(r:udm6161-udt1529lv) Units=km Length=0.00930658 bus1=udt1529lv.1.2 bus2=udm6161.1.2 switch=n enabled=y phases=2 Linecode=1P_UG_AL_1/0_Brenau_0_416_0_2_2

New Line.l(r:p1ulv27191-udm6162) Units=km Length=0.0132601 bus1=udm6162.1.2 bus2=p1ulv27191.1.2 switch=n enabled=y phases=2 Linecode=1P_UG_AL_1/0_Brenau_0_416_0_2_2

New Line.l(r:udm6162-udt1529lv) Units=km Length=0.00931621 bus1=udt1529lv.1.2 bus2=udm6162.1.2 switch=n enabled=y phases=2 Linecode=1P_UG_AL_1/0_Brenau_0_416_0_2_2

New Line.l(r:p1ulv29474-udt1530lv) Units=km Length=0.0176551 bus1=udt1530lv.1.2 bus2=p1ulv29474.1.2 switch=n enabled=y phases=2 Linecode=1P_UG_AL_1/0_Brenau_0_416_0_2_2

New Line.l(r:p1ulv3300-udm6163) Units=km Length=0.0135604 bus1=udm6163.1.2 bus2=p1ulv3300.1.2 switch=n enabled=y phases=2 Linecode=1P_UG_AL_1/0_Brenau_0_416_0_2_2

New Line.l(r:p1ulv3315-udm6163) Units=km Length=0.0121815 bus1=udm6163.1.2 bus2=p1ulv3315.1.2 switch=n enabled=y phases=2 Linecode=1P_UG_AL_1/0_Brenau_0_416_0_2_2

New Line.l(r:udm6163-udt1530lv) Units=km Length=0.0187328 bus1=udt1530lv.1.2 bus2=udm6163.1.2 switch=n enabled=y phases=2 Linecode=1P_UG_AL_2/0_Converse_0_416_0_2_2

New Line.l(r:p1ulv45448-udm6166) Units=km Length=0.0126438 bus1=udm6166.1.2 bus2=p1ulv45448.1.2 switch=n enabled=y phases=2 Linecode=1P_UG_AL_1/0_Brenau_0_416_0_2_2

New Line.l(r:udm6166-udt1530lv) Units=km Length=0.0192526 bus1=udt1530lv.1.2 bus2=udm6166.1.2 switch=n enabled=y phases=2 Linecode=1P_UG_AL_1/0_Brenau_0_416_0_2_2

New Line.l(r:p1ulv3313-udm6168) Units=km Length=0.0124041 bus1=udm6168.1.2 bus2=p1ulv3313.1.2 switch=n enabled=y phases=2 Linecode=1P_UG_AL_1/0_Brenau_0_416_0_2_2

New Line.l(r:p1ulv32846-udm6168) Units=km Length=0.0113423 bus1=udm6168.1.2 bus2=p1ulv32846.1.2 switch=n enabled=y phases=2 Linecode=1P_UG_AL_1/0_Brenau_0_416_0_2_2

New Line.l(r:p1ulv3301-udm6167) Units=km Length=0.012201100000000001 bus1=udm6167.1.2 bus2=p1ulv3301.1.2 switch=n enabled=y phases=2 Linecode=1P_UG_AL_1/0_Brenau_0_416_0_2_2

New Line.l(r:udm6167-udm6168) Units=km Length=0.00936685 bus1=udm6168.1.2 bus2=udm6167.1.2 switch=n enabled=y phases=2 Linecode=1P_UG_AL_1/0_Brenau_0_416_0_2_2

New Line.l(r:udm6168-udt1531lv) Units=km Length=0.00936596 bus1=udt1531lv.1.2 bus2=udm6168.1.2 switch=n enabled=y phases=2 Linecode=1P_UG_AL_4/0_Sweetbriar_0_416_0_2_2

New Line.l(r:p1ulv32140-udm6169) Units=km Length=0.013557500000000002 bus1=udm6169.1.2 bus2=p1ulv32140.1.2 switch=n enabled=y phases=2 Linecode=1P_UG_AL_1/0_Brenau_0_416_0_2_2

New Line.l(r:p1ulv47225-udm6171) Units=km Length=0.00817354 bus1=udm6171.1.2 bus2=p1ulv47225.1.2 switch=n enabled=y phases=2 Linecode=1P_UG_AL_4/0_Sweetbriar_0_416_0_2_2

New Line.l(r:udm6169-udm6171) Units=km Length=0.00936685 bus1=udm6169.1.2 bus2=udm6171.1.2 switch=n enabled=y phases=2 Linecode=1P_UG_AL_4/0_Sweetbriar_0_416_0_2_2

New Line.l(r:udm6169-udt1531lv) Units=km Length=0.009356 bus1=udt1531lv.1.2 bus2=udm6169.1.2 switch=n enabled=y phases=2 Linecode=1P_UG_AL_4/0_Sweetbriar_0_416_0_2_2

New Line.l(r:p1ulv27045-udt1532lv) Units=km Length=0.0159267 bus1=udt1532lv.1.2 bus2=p1ulv27045.1.2 switch=n enabled=y phases=2 Linecode=1P_UG_AL_1/0_Brenau_0_416_0_2_2

New Line.l(r:p1ulv38327-udt1532lv) Units=km Length=0.0212381 bus1=udt1532lv.1.2 bus2=p1ulv38327.1.2 switch=n enabled=y phases=2 Linecode=1P_UG_AL_1/0_Brenau_0_416_0_2_2

New Line.l(r:p1ulv39073-udm6177) Units=km Length=0.0188944 bus1=udm6177.1.2 bus2=p1ulv39073.1.2 switch=n enabled=y phases=2 Linecode=1P_UG_AL_1/0_Brenau_0_416_0_2_2

New Line.l(r:p1ulv3323-udm6173) Units=km Length=0.0213573 bus1=udm6173.1.2 bus2=p1ulv3323.1.2 switch=n enabled=y phases=2 Linecode=1P_UG_AL_1/0_Brenau_0_416_0_2_2

New Line.l(r:udm6173-udm6177) Units=km Length=0.00968999 bus1=udm6177.1.2 bus2=udm6173.1.2 switch=n enabled=y phases=2 Linecode=1P_UG_AL_1/0_Brenau_0_416_0_2_2

New Line.l(r:udm6177-udt1532lv) Units=km Length=0.0387595 bus1=udt1532lv.1.2 bus2=udm6177.1.2 switch=n enabled=y phases=2 Linecode=1P_UG_AL_1/0_Brenau_0_416_0_2_2

New Line.l(r:p1ulv47156-udm6178) Units=km Length=0.0219807 bus1=udm6178.1.2 bus2=p1ulv47156.1.2 switch=n enabled=y phases=2 Linecode=1P_UG_AL_1/0_Brenau_0_416_0_2_2

New Line.l(r:p1ulv3302-udm6172) Units=km Length=0.0186275 bus1=udm6172.1.2 bus2=p1ulv3302.1.2 switch=n enabled=y phases=2 Linecode=1P_UG_AL_1/0_Brenau_0_416_0_2_2

New Line.l(r:p1ulv3325-udm6172) Units=km Length=0.0186461 bus1=udm6172.1.2 bus2=p1ulv3325.1.2 switch=n enabled=y phases=2 Linecode=1P_UG_AL_4/0_Sweetbriar_0_416_0_2_2

New Line.l(r:udm6172-udm6178) Units=km Length=0.01938 bus1=udm6178.1.2 bus2=udm6172.1.2 switch=n enabled=y phases=2 Linecode=1P_UG_AL_4/0_Sweetbriar_0_416_0_2_2

New Line.l(r:udm6178-udt1532lv) Units=km Length=0.00968999 bus1=udt1532lv.1.2 bus2=udm6178.1.2 switch=n enabled=y phases=2 Linecode=1P_UG_AL_4/0_Sweetbriar_0_416_0_2_2

New Line.l(r:p1ulv45508-udt1533lv) Units=km Length=0.00989207 bus1=udt1533lv.1.2 bus2=p1ulv45508.1.2 switch=n enabled=y phases=2 Linecode=1P_UG_AL_1/0_Brenau_0_416_0_2_2

New Line.l(r:p1ulv3303-udm6179) Units=km Length=0.00622177 bus1=udm6179.1.2 bus2=p1ulv3303.1.2 switch=n enabled=y phases=2 Linecode=1P_UG_AL_1/0_Brenau_0_416_0_2_2

New Line.l(r:p1ulv3307-udm6179) Units=km Length=0.0096914 bus1=udm6179.1.2 bus2=p1ulv3307.1.2 switch=n enabled=y phases=2 Linecode=1P_UG_AL_1/0_Brenau_0_416_0_2_2

New Line.l(r:p1ulv26109-udm6179) Units=km Length=0.040584 bus1=udm6179.1.2 bus2=p1ulv26109.1.2 switch=n enabled=y phases=2 Linecode=1P_UG_AL_1/0_Brenau_0_416_0_2_2

New Line.l(r:udm6179-udt1533lv) Units=km Length=0.0096549 bus1=udt1533lv.1.2 bus2=udm6179.1.2 switch=n enabled=y phases=2 Linecode=1P_UG_AL_4/0_Sweetbriar_0_416_0_2_2

New Line.l(r:p1ulv39059-udm6183) Units=km Length=0.0128326 bus1=udm6183.1.2 bus2=p1ulv39059.1.2 switch=n enabled=y phases=2 Linecode=1P_UG_AL_1/0_Brenau_0_416_0_2_2

New Line.l(r:p1ulv28281-udm6182) Units=km Length=0.00743589 bus1=udm6182.1.2 bus2=p1ulv28281.1.2 switch=n enabled=y phases=2 Linecode=1P_UG_AL_1/0_Brenau_0_416_0_2_2

New Line.l(r:udm6182-udm6183) Units=km Length=0.016999800000000002 bus1=udm6183.1.2 bus2=udm6182.1.2 switch=n enabled=y phases=2 Linecode=1P_UG_AL_1/0_Brenau_0_416_0_2_2

New Line.l(r:udm6183-udt1533lv) Units=km Length=0.0169898 bus1=udt1533lv.1.2 bus2=udm6183.1.2 switch=n enabled=y phases=2 Linecode=1P_UG_AL_1/0_Brenau_0_416_0_2_2

New Line.l(r:p1ulv41298-udt1534lv) Units=km Length=0.0187913 bus1=udt1534lv.1.2 bus2=p1ulv41298.1.2 switch=n enabled=y phases=2 Linecode=1P_UG_AL_1/0_Brenau_0_416_0_2_2

New Line.l(r:p1ulv3335-udm6186) Units=km Length=0.0215484 bus1=udm6186.1.2 bus2=p1ulv3335.1.2 switch=n enabled=y phases=2 Linecode=1P_UG_AL_1/0_Brenau_0_416_0_2_2

New Line.l(r:udm6186-udt1534lv) Units=km Length=0.0387595 bus1=udt1534lv.1.2 bus2=udm6186.1.2 switch=n enabled=y phases=2 Linecode=1P_UG_AL_1/0_Brenau_0_416_0_2_2

New Line.l(r:p1ulv31361-udm6187) Units=km Length=0.0166535 bus1=udm6187.1.2 bus2=p1ulv31361.1.2 switch=n enabled=y phases=2 Linecode=1P_UG_AL_4/0_Sweetbriar_0_416_0_2_2

New Line.l(r:p1ulv3304-udm6185) Units=km Length=0.0220023 bus1=udm6185.1.2 bus2=p1ulv3304.1.2 switch=n enabled=y phases=2 Linecode=1P_UG_AL_4/0_Sweetbriar_0_416_0_2_2

New Line.l(r:udm6185-udm6187) Units=km Length=0.00968955 bus1=udm6187.1.2 bus2=udm6185.1.2 switch=n enabled=y phases=2 Linecode=1P_UG_AL_4/0_Sweetbriar_0_416_0_2_2

New Line.l(r:udm6187-udt1534lv) Units=km Length=0.00968999 bus1=udt1534lv.1.2 bus2=udm6187.1.2 switch=n enabled=y phases=2 Linecode=1P_UG_AL_4/0_Sweetbriar_0_416_0_2_2

New Line.l(r:p1ulv26623-udm6190) Units=km Length=0.00801963 bus1=udm6190.1.2 bus2=p1ulv26623.1.2 switch=n enabled=y phases=2 Linecode=1P_UG_AL_1/0_Brenau_0_416_0_2_2

New Line.l(r:p1ulv28286-udm6190) Units=km Length=0.035784 bus1=udm6190.1.2 bus2=p1ulv28286.1.2 switch=n enabled=y phases=2 Linecode=1P_UG_AL_1/0_Brenau_0_416_0_2_2

New Line.l(r:p1ulv29889-udm6192) Units=km Length=0.0135786 bus1=udm6192.1.2 bus2=p1ulv29889.1.2 switch=n enabled=y phases=2 Linecode=1P_UG_AL_1/0_Brenau_0_416_0_2_2

New Line.l(r:udm6190-udm6192) Units=km Length=0.0192526 bus1=udm6190.1.2 bus2=udm6192.1.2 switch=n enabled=y phases=2 Linecode=1P_UG_AL_1/0_Brenau_0_416_0_2_2

New Line.l(r:udm6190-udt1535lv) Units=km Length=0.00962585 bus1=udt1535lv.1.2 bus2=udm6190.1.2 switch=n enabled=y phases=2 Linecode=1P_UG_AL_4/0_Sweetbriar_0_416_0_2_2

New Line.l(r:p1ulv47094-udm6193) Units=km Length=0.0137802 bus1=udm6193.1.2 bus2=p1ulv47094.1.2 switch=n enabled=y phases=2 Linecode=1P_UG_AL_1/0_Brenau_0_416_0_2_2

New Line.l(r:p1ulv3305-udm6189) Units=km Length=0.0142231 bus1=udm6189.1.2 bus2=p1ulv3305.1.2 switch=n enabled=y phases=2 Linecode=1P_UG_AL_1/0_Brenau_0_416_0_2_2

New Line.l(r:udm6189-udm6193) Units=km Length=0.00962585 bus1=udm6193.1.2 bus2=udm6189.1.2 switch=n enabled=y phases=2 Linecode=1P_UG_AL_1/0_Brenau_0_416_0_2_2

New Line.l(r:udm6193-udt1535lv) Units=km Length=0.00962672 bus1=udt1535lv.1.2 bus2=udm6193.1.2 switch=n enabled=y phases=2 Linecode=1P_UG_AL_1/0_Brenau_0_416_0_2_2

New Line.l(r:p1ulv3306-udt1536lv) Units=km Length=0.016768700000000004 bus1=udt1536lv.1.2 bus2=p1ulv3306.1.2 switch=n enabled=y phases=2 Linecode=1P_UG_AL_1/0_Brenau_0_416_0_2_2

New Line.l(r:p1ulv30276-udt1536lv) Units=km Length=0.04261330000000001 bus1=udt1536lv.1.2 bus2=p1ulv30276.1.2 switch=n enabled=y phases=2 Linecode=1P_UG_AL_1/0_Brenau_0_416_0_2_2

New Line.l(r:p1ulv37551-udm6196) Units=km Length=0.0149321 bus1=udm6196.1.2 bus2=p1ulv37551.1.2 switch=n enabled=y phases=2 Linecode=1P_UG_AL_1/0_Brenau_0_416_0_2_2

New Line.l(r:udm6196-udt1536lv) Units=km Length=0.009866310000000001 bus1=udt1536lv.1.2 bus2=udm6196.1.2 switch=n enabled=y phases=2 Linecode=1P_UG_AL_1/0_Brenau_0_416_0_2_2

New Line.l(r:p1ulv3308-udt1537lv) Units=km Length=0.0123747 bus1=udt1537lv.1.2 bus2=p1ulv3308.1.2 switch=n enabled=y phases=2 Linecode=1P_UG_AL_1/0_Brenau_0_416_0_2_2

New Line.l(r:p1ulv42295-udm6198) Units=km Length=0.00535763 bus1=udm6198.1.2 bus2=p1ulv42295.1.2 switch=n enabled=y phases=2 Linecode=1P_UG_AL_1/0_Brenau_0_416_0_2_2

New Line.l(r:udm6198-udt1537lv) Units=km Length=0.00965394 bus1=udt1537lv.1.2 bus2=udm6198.1.2 switch=n enabled=y phases=2 Linecode=1P_UG_AL_1/0_Brenau_0_416_0_2_2

New Line.l(r:p1ulv3309-udt1538lv) Units=km Length=0.0195388 bus1=udt1538lv.1.2 bus2=p1ulv3309.1.2 switch=n enabled=y phases=2 Linecode=1P_UG_AL_1/0_Brenau_0_416_0_2_2

New Line.l(r:p1ulv27116-udt1538lv) Units=km Length=0.041704200000000004 bus1=udt1538lv.1.2 bus2=p1ulv27116.1.2 switch=n enabled=y phases=2 Linecode=1P_UG_AL_4/0_Sweetbriar_0_416_0_2_2

New Line.l(r:p1ulv3322-udm6200) Units=km Length=0.0205695 bus1=udm6200.1.2 bus2=p1ulv3322.1.2 switch=n enabled=y phases=2 Linecode=1P_UG_AL_1/0_Brenau_0_416_0_2_2

New Line.l(r:udm6200-udt1538lv) Units=km Length=0.01939 bus1=udt1538lv.1.2 bus2=udm6200.1.2 switch=n enabled=y phases=2 Linecode=1P_UG_AL_1/0_Brenau_0_416_0_2_2

New Line.l(r:p1ulv3334-udm6201) Units=km Length=0.0129591 bus1=udm6201.1.2 bus2=p1ulv3334.1.2 switch=n enabled=y phases=2 Linecode=1P_UG_AL_1/0_Brenau_0_416_0_2_2

New Line.l(r:p1ulv34626-udm6201) Units=km Length=0.0206423 bus1=udm6201.1.2 bus2=p1ulv34626.1.2 switch=n enabled=y phases=2 Linecode=1P_UG_AL_1/0_Brenau_0_416_0_2_2

New Line.l(r:udm6201-udt1538lv) Units=km Length=0.00968999 bus1=udt1538lv.1.2 bus2=udm6201.1.2 switch=n enabled=y phases=2 Linecode=1P_UG_AL_2/0_Converse_0_416_0_2_2

New Line.l(r:p1ulv3310-udt1539lv) Units=km Length=0.0148422 bus1=udt1539lv.1.2 bus2=p1ulv3310.1.2 switch=n enabled=y phases=2 Linecode=1P_UG_AL_1/0_Brenau_0_416_0_2_2

New Line.l(r:p1ulv48904-udt1539lv) Units=km Length=0.011928 bus1=udt1539lv.1.2 bus2=p1ulv48904.1.2 switch=n enabled=y phases=2 Linecode=1P_UG_AL_1/0_Brenau_0_416_0_2_2

New Line.l(r:p1ulv28562-udm6205) Units=km Length=0.0146279 bus1=udm6205.1.2 bus2=p1ulv28562.1.2 switch=n enabled=y phases=2 Linecode=1P_UG_AL_2/0_Converse_0_416_0_2_2

New Line.l(r:udm6205-udt1539lv) Units=km Length=0.0387595 bus1=udt1539lv.1.2 bus2=udm6205.1.2 switch=n enabled=y phases=2 Linecode=1P_UG_AL_2/0_Converse_0_416_0_2_2

New Line.l(r:p1ulv31979-udm6206) Units=km Length=0.016088600000000005 bus1=udm6206.1.2 bus2=p1ulv31979.1.2 switch=n enabled=y phases=2 Linecode=1P_UG_AL_1/0_Brenau_0_416_0_2_2

New Line.l(r:udm6206-udt1539lv) Units=km Length=0.01938 bus1=udt1539lv.1.2 bus2=udm6206.1.2 switch=n enabled=y phases=2 Linecode=1P_UG_AL_1/0_Brenau_0_416_0_2_2

New Line.l(r:p1ulv37620-udt1540lv) Units=km Length=0.0144236 bus1=udt1540lv.1.2 bus2=p1ulv37620.1.2 switch=n enabled=y phases=2 Linecode=1P_UG_AL_1/0_Brenau_0_416_0_2_2

New Line.l(r:p1ulv3320-udm6210) Units=km Length=0.0156127 bus1=udm6210.1.2 bus2=p1ulv3320.1.2 switch=n enabled=y phases=2 Linecode=1P_UG_AL_1/0_Brenau_0_416_0_2_2

New Line.l(r:p1ulv3321-udm6211) Units=km Length=0.0118915 bus1=udm6211.1.2 bus2=p1ulv3321.1.2 switch=n enabled=y phases=2 Linecode=1P_UG_AL_1/0_Brenau_0_416_0_2_2

New Line.l(r:p1ulv30534-udm6213) Units=km Length=0.0138496 bus1=udm6213.1.2 bus2=p1ulv30534.1.2 switch=n enabled=y phases=2 Linecode=1P_UG_AL_1/0_Brenau_0_416_0_2_2

New Line.l(r:udm6211-udm6213) Units=km Length=0.0071667400000000004 bus1=udm6211.1.2 bus2=udm6213.1.2 switch=n enabled=y phases=2 Linecode=1P_UG_AL_1/0_Brenau_0_416_0_2_2

New Line.l(r:udm6210-udm6211) Units=km Length=0.007168 bus1=udm6210.1.2 bus2=udm6211.1.2 switch=n enabled=y phases=2 Linecode=1P_UG_AL_2/0_Converse_0_416_0_2_2

New Line.l(r:udm6210-udt1540lv) Units=km Length=0.00968394 bus1=udt1540lv.1.2 bus2=udm6210.1.2 switch=n enabled=y phases=2 Linecode=1P_UG_AL_4/0_Sweetbriar_0_416_0_2_2

New Line.l(r:p1ulv37956-udm6215) Units=km Length=0.0129226 bus1=udm6215.1.2 bus2=p1ulv37956.1.2 switch=n enabled=y phases=2 Linecode=1P_UG_AL_1/0_Brenau_0_416_0_2_2

New Line.l(r:p1ulv29923-udm6212) Units=km Length=0.01412 bus1=udm6212.1.2 bus2=p1ulv29923.1.2 switch=n enabled=y phases=2 Linecode=1P_UG_AL_1/0_Brenau_0_416_0_2_2

New Line.l(r:p1ulv3311-udm6208) Units=km Length=0.015337 bus1=udm6208.1.2 bus2=p1ulv3311.1.2 switch=n enabled=y phases=2 Linecode=1P_UG_AL_1/0_Brenau_0_416_0_2_2

New Line.l(r:p1ulv3318-udm6208) Units=km Length=0.013683 bus1=udm6208.1.2 bus2=p1ulv3318.1.2 switch=n enabled=y phases=2 Linecode=1P_UG_AL_1/0_Brenau_0_416_0_2_2

New Line.l(r:udm6208-udm6212) Units=km Length=0.00968394 bus1=udm6212.1.2 bus2=udm6208.1.2 switch=n enabled=y phases=2 Linecode=1P_UG_AL_1/0_Brenau_0_416_0_2_2

New Line.l(r:udm6212-udm6215) Units=km Length=0.00967397 bus1=udm6215.1.2 bus2=udm6212.1.2 switch=n enabled=y phases=2 Linecode=1P_UG_AL_4/0_Sweetbriar_0_416_0_2_2

New Line.l(r:udm6215-udt1540lv) Units=km Length=0.00967397 bus1=udt1540lv.1.2 bus2=udm6215.1.2 switch=n enabled=y phases=2 Linecode=1P_UG_AL_4/0_Sweetbriar_0_416_0_2_2

New Line.l(r:p1ulv27699-udt1541lv) Units=km Length=0.0150672 bus1=udt1541lv.1.2 bus2=p1ulv27699.1.2 switch=n enabled=y phases=2 Linecode=1P_OH_AL_2/0_Rucina_0_416_0_2_2

New Line.l(r:p1ulv3312-udm6216) Units=km Length=0.0158139 bus1=udm6216.1.2 bus2=p1ulv3312.1.2 switch=n enabled=y phases=2 Linecode=1P_UG_AL_4/0_Sweetbriar_0_416_0_2_2

New Line.l(r:udm6216-udt1541lv) Units=km Length=0.0392692 bus1=udt1541lv.1.2 bus2=udm6216.1.2 switch=n enabled=y phases=2 Linecode=1P_OH_AL_4/0_Zuzara_0_416_0_2_2

New Line.l(r:p1ulv28409-udt1542lv) Units=km Length=0.00877757 bus1=udt1542lv.1.2 bus2=p1ulv28409.1.2 switch=n enabled=y phases=2 Linecode=1P_UG_AL_1/0_Brenau_0_416_0_2_2

New Line.l(r:p1ulv3314-udm6218) Units=km Length=0.0165528 bus1=udm6218.1.2 bus2=p1ulv3314.1.2 switch=n enabled=y phases=2 Linecode=1P_UG_AL_1/0_Brenau_0_416_0_2_2

New Line.l(r:udm6218-udt1542lv) Units=km Length=0.00930658 bus1=udt1542lv.1.2 bus2=udm6218.1.2 switch=n enabled=y phases=2 Linecode=1P_UG_AL_1/0_Brenau_0_416_0_2_2

New Line.l(r:p1ulv30427-udm6220) Units=km Length=0.0151742 bus1=udm6220.1.2 bus2=p1ulv30427.1.2 switch=n enabled=y phases=2 Linecode=1P_UG_AL_1/0_Brenau_0_416_0_2_2

New Line.l(r:p1ulv50607-udm6220) Units=km Length=0.0591821 bus1=udm6220.1.2 bus2=p1ulv50607.1.2 switch=n enabled=y phases=2 Linecode=1P_UG_AL_1/0_Brenau_0_416_0_2_2

New Line.l(r:p1ulv49500-udm6221) Units=km Length=0.0126599 bus1=udm6221.1.2 bus2=p1ulv49500.1.2 switch=n enabled=y phases=2 Linecode=1P_UG_AL_4/0_Sweetbriar_0_416_0_2_2

New Line.l(r:udm6220-udm6221) Units=km Length=0.00931658 bus1=udm6220.1.2 bus2=udm6221.1.2 switch=n enabled=y phases=2 Linecode=1P_UG_AL_4/0_Sweetbriar_0_416_0_2_2

New Line.l(r:udm6220-udt1542lv) Units=km Length=0.00931621 bus1=udt1542lv.1.2 bus2=udm6220.1.2 switch=n enabled=y phases=2 Linecode=1P_UG_AL_4/0_Sweetbriar_0_416_0_2_2

New Line.l(r:p1ulv3316-udt1543lv) Units=km Length=0.0160961 bus1=udt1543lv.1.2 bus2=p1ulv3316.1.2 switch=n enabled=y phases=2 Linecode=1P_UG_AL_1/0_Brenau_0_416_0_2_2

New Line.l(r:p1ulv3319-udt1543lv) Units=km Length=0.00900714 bus1=udt1543lv.1.2 bus2=p1ulv3319.1.2 switch=n enabled=y phases=2 Linecode=1P_UG_AL_1/0_Brenau_0_416_0_2_2

New Line.l(r:p1ulv3317-udt1544lv) Units=km Length=0.020755500000000003 bus1=udt1544lv.1.2 bus2=p1ulv3317.1.2 switch=n enabled=y phases=2 Linecode=1P_UG_AL_1/0_Brenau_0_416_0_2_2

New Line.l(r:p1ulv3326-udm6229) Units=km Length=0.00298203 bus1=udm6229.1.2 bus2=p1ulv3326.1.2 switch=n enabled=y phases=2 Linecode=1P_UG_AL_1/0_Brenau_0_416_0_2_2

New Line.l(r:p1ulv27362-udm6230) Units=km Length=0.00457564 bus1=udm6230.1.2 bus2=p1ulv27362.1.2 switch=n enabled=y phases=2 Linecode=1P_UG_AL_1/0_Brenau_0_416_0_2_2

New Line.l(r:udm6229-udm6230) Units=km Length=0.007722430000000001 bus1=udm6229.1.2 bus2=udm6230.1.2 switch=n enabled=y phases=2 Linecode=1P_UG_AL_1/0_Brenau_0_416_0_2_2

New Line.l(r:udm6229-udt1546lv) Units=km Length=0.0154355 bus1=udt1546lv.1.2 bus2=udm6229.1.2 switch=n enabled=y phases=2 Linecode=1P_UG_AL_1/0_Brenau_0_416_0_2_2

New Line.l(r:p1ulv28043-udm6231) Units=km Length=0.014767500000000001 bus1=udm6231.1.2 bus2=p1ulv28043.1.2 switch=n enabled=y phases=2 Linecode=1P_UG_AL_4/0_Sweetbriar_0_416_0_2_2

New Line.l(r:udm6231-udt1546lv) Units=km Length=0.0849354 bus1=udt1546lv.1.2 bus2=udm6231.1.2 switch=n enabled=y phases=2 Linecode=1P_UG_AL_4/0_Sweetbriar_0_416_0_2_2

New Line.l(r:p1ulv3328-udt1548lv) Units=km Length=0.0160464 bus1=udt1548lv.1.2 bus2=p1ulv3328.1.2 switch=n enabled=y phases=2 Linecode=1P_UG_AL_4/0_Sweetbriar_0_416_0_2_2

New Line.l(r:p1ulv3347-udt1563lv) Units=km Length=0.0150241 bus1=udt1563lv.1.2 bus2=p1ulv3347.1.2 switch=n enabled=y phases=2 Linecode=1P_UG_AL_4/0_Sweetbriar_0_416_0_2_2

New Line.l(r:p1ulv3368-udm6306) Units=km Length=0.00450444 bus1=udm6306.1.2 bus2=p1ulv3368.1.2 switch=n enabled=y phases=2 Linecode=1P_UG_AL_1/0_Brenau_0_416_0_2_2

New Line.l(r:p1ulv3355-udm6305) Units=km Length=0.011181 bus1=udm6305.1.2 bus2=p1ulv3355.1.2 switch=n enabled=y phases=2 Linecode=1P_UG_AL_1/0_Brenau_0_416_0_2_2

New Line.l(r:p1ulv34501-udm6308) Units=km Length=0.00978149 bus1=udm6308.1.2 bus2=p1ulv34501.1.2 switch=n enabled=y phases=2 Linecode=1P_UG_AL_1/0_Brenau_0_416_0_2_2

New Line.l(r:udm6305-udm6308) Units=km Length=0.00954598 bus1=udm6305.1.2 bus2=udm6308.1.2 switch=n enabled=y phases=2 Linecode=1P_UG_AL_1/0_Brenau_0_416_0_2_2

New Line.l(r:udm6305-udm6306) Units=km Length=0.00955123 bus1=udm6306.1.2 bus2=udm6305.1.2 switch=n enabled=y phases=2 Linecode=1P_UG_AL_1/0_Brenau_0_416_0_2_2

New Line.l(r:udm6306-udt1567lv) Units=km Length=0.00955123 bus1=udt1567lv.1.2 bus2=udm6306.1.2 switch=n enabled=y phases=2 Linecode=1P_UG_AL_4/0_Sweetbriar_0_416_0_2_2

New Line.l(r:p1ulv3379-udm6307) Units=km Length=0.00817196 bus1=udm6307.1.2 bus2=p1ulv3379.1.2 switch=n enabled=y phases=2 Linecode=1P_UG_AL_1/0_Brenau_0_416_0_2_2

New Line.l(r:p1ulv38855-udm6309) Units=km Length=0.0124943 bus1=udm6309.1.2 bus2=p1ulv38855.1.2 switch=n enabled=y phases=2 Linecode=1P_UG_AL_1/0_Brenau_0_416_0_2_2

New Line.l(r:udm6307-udm6309) Units=km Length=0.0106878 bus1=udm6307.1.2 bus2=udm6309.1.2 switch=n enabled=y phases=2 Linecode=1P_UG_AL_1/0_Brenau_0_416_0_2_2

New Line.l(r:udm6307-udt1567lv) Units=km Length=0.019106400000000003 bus1=udt1567lv.1.2 bus2=udm6307.1.2 switch=n enabled=y phases=2 Linecode=1P_UG_AL_1/0_Brenau_0_416_0_2_2

New Line.l(r:p1ulv3363-udm6330) Units=km Length=0.00857103 bus1=udm6330.1.2 bus2=p1ulv3363.1.2 switch=n enabled=y phases=2 Linecode=1P_UG_AL_2/0_Converse_0_416_0_2_2

New Line.l(r:udm6330-udt1573lv) Units=km Length=0.0190972 bus1=udt1573lv.1.2 bus2=udm6330.1.2 switch=n enabled=y phases=2 Linecode=1P_UG_AL_2/0_Converse_0_416_0_2_2

New Line.l(r:p1ulv28770-udm6331) Units=km Length=0.00932489 bus1=udm6331.1.2 bus2=p1ulv28770.1.2 switch=n enabled=y phases=2 Linecode=1P_UG_AL_1/0_Brenau_0_416_0_2_2

New Line.l(r:p1ulv44030-udm6331) Units=km Length=0.00823287 bus1=udm6331.1.2 bus2=p1ulv44030.1.2 switch=n enabled=y phases=2 Linecode=1P_UG_AL_2/0_Converse_0_416_0_2_2

New Line.l(r:udm6331-udt1573lv) Units=km Length=0.00955123 bus1=udt1573lv.1.2 bus2=udm6331.1.2 switch=n enabled=y phases=2 Linecode=1P_UG_AL_4/0_Sweetbriar_0_416_0_2_2

New Line.l(r:p1ulv31650-udt1574lv) Units=km Length=0.00680485 bus1=udt1574lv.1.2 bus2=p1ulv31650.1.2 switch=n enabled=y phases=2 Linecode=1P_UG_AL_4/0_Sweetbriar_0_416_0_2_2

New Line.l(r:p1ulv3364-udm6333) Units=km Length=0.0283836 bus1=udm6333.1.2 bus2=p1ulv3364.1.2 switch=n enabled=y phases=2 Linecode=1P_UG_AL_1/0_Brenau_0_416_0_2_2

New Line.l(r:udm6333-udt1574lv) Units=km Length=0.00954204 bus1=udt1574lv.1.2 bus2=udm6333.1.2 switch=n enabled=y phases=2 Linecode=1P_UG_AL_1/0_Brenau_0_416_0_2_2

New Line.l(r:p1ulv42606-udm6335) Units=km Length=0.00889085 bus1=udm6335.1.2 bus2=p1ulv42606.1.2 switch=n enabled=y phases=2 Linecode=1P_UG_AL_1/0_Brenau_0_416_0_2_2

New Line.l(r:p1ulv43821-udm6335) Units=km Length=0.0118299 bus1=udm6335.1.2 bus2=p1ulv43821.1.2 switch=n enabled=y phases=2 Linecode=1P_UG_AL_2/0_Converse_0_416_0_2_2

New Line.l(r:udm6335-udt1574lv) Units=km Length=0.00955123 bus1=udt1574lv.1.2 bus2=udm6335.1.2 switch=n enabled=y phases=2 Linecode=1P_UG_AL_4/0_Sweetbriar_0_416_0_2_2

New Line.l(r:p1ulv4243-udm7487) Units=km Length=0.0177715 bus1=udm7487.1.2 bus2=p1ulv4243.1.2 switch=n enabled=y phases=2 Linecode=1P_UG_AL_1/0_Brenau_0_416_0_2_2

New Line.l(r:p1ulv33009-udm7487) Units=km Length=0.0179306 bus1=udm7487.1.2 bus2=p1ulv33009.1.2 switch=n enabled=y phases=2 Linecode=1P_UG_AL_1/0_Brenau_0_416_0_2_2

New Line.l(r:p1ulv5984-udm7489) Units=km Length=0.0160798 bus1=udm7489.1.2 bus2=p1ulv5984.1.2 switch=n enabled=y phases=2 Linecode=1P_UG_AL_1/0_Brenau_0_416_0_2_2

New Line.l(r:udm7487-udm7489) Units=km Length=0.00956613 bus1=udm7487.1.2 bus2=udm7489.1.2 switch=n enabled=y phases=2 Linecode=1P_UG_AL_1/0_Brenau_0_416_0_2_2

New Line.l(r:udm7487-udt1870lv) Units=km Length=0.00955997 bus1=udt1870lv.1.2 bus2=udm7487.1.2 switch=n enabled=y phases=2 Linecode=1P_UG_AL_4/0_Sweetbriar_0_416_0_2_2

New Line.l(r:p1ulv4406-udm7488) Units=km Length=0.0171434 bus1=udm7488.1.2 bus2=p1ulv4406.1.2 switch=n enabled=y phases=2 Linecode=1P_UG_AL_1/0_Brenau_0_416_0_2_2

New Line.l(r:p1ulv30154-udm7488) Units=km Length=0.0130033 bus1=udm7488.1.2 bus2=p1ulv30154.1.2 switch=n enabled=y phases=2 Linecode=1P_UG_AL_1/0_Brenau_0_416_0_2_2

New Line.l(r:p1ulv35569-udm7488) Units=km Length=0.0125936 bus1=udm7488.1.2 bus2=p1ulv35569.1.2 switch=n enabled=y phases=2 Linecode=1P_UG_AL_1/0_Brenau_0_416_0_2_2

New Line.l(r:udm7488-udt1870lv) Units=km Length=0.00955826 bus1=udt1870lv.1.2 bus2=udm7488.1.2 switch=n enabled=y phases=2 Linecode=1P_UG_AL_4/0_Sweetbriar_0_416_0_2_2

New Line.l(r:p1ulv5986-udt1871lv) Units=km Length=0.0150496 bus1=udt1871lv.1.2 bus2=p1ulv5986.1.2 switch=n enabled=y phases=2 Linecode=1P_UG_AL_1/0_Brenau_0_416_0_2_2

New Line.l(r:p1ulv30684-udt1871lv) Units=km Length=0.013771500000000002 bus1=udt1871lv.1.2 bus2=p1ulv30684.1.2 switch=n enabled=y phases=2 Linecode=1P_UG_AL_1/0_Brenau_0_416_0_2_2

New Line.l(r:p1ulv34930-udm7498) Units=km Length=0.0126785 bus1=udm7498.1.2 bus2=p1ulv34930.1.2 switch=n enabled=y phases=2 Linecode=1P_UG_AL_1/0_Brenau_0_416_0_2_2

New Line.l(r:p1ulv4244-udm7493) Units=km Length=0.0160604 bus1=udm7493.1.2 bus2=p1ulv4244.1.2 switch=n enabled=y phases=2 Linecode=1P_UG_AL_1/0_Brenau_0_416_0_2_2

New Line.l(r:p1ulv44280-udm7493) Units=km Length=0.0153976 bus1=udm7493.1.2 bus2=p1ulv44280.1.2 switch=n enabled=y phases=2 Linecode=1P_UG_AL_1/0_Brenau_0_416_0_2_2

New Line.l(r:p1ulv4247-udm7494) Units=km Length=0.017152300000000002 bus1=udm7494.1.2 bus2=p1ulv4247.1.2 switch=n enabled=y phases=2 Linecode=1P_UG_AL_1/0_Brenau_0_416_0_2_2

New Line.l(r:udm7493-udm7494) Units=km Length=0.00983587 bus1=udm7493.1.2 bus2=udm7494.1.2 switch=n enabled=y phases=2 Linecode=1P_UG_AL_1/0_Brenau_0_416_0_2_2

New Line.l(r:udm7493-udm7498) Units=km Length=0.019667100000000003 bus1=udm7498.1.2 bus2=udm7493.1.2 switch=n enabled=y phases=2 Linecode=1P_UG_AL_4/0_Sweetbriar_0_416_0_2_2

New Line.l(r:udm7498-udt1871lv) Units=km Length=0.0098437 bus1=udt1871lv.1.2 bus2=udm7498.1.2 switch=n enabled=y phases=2 Linecode=1P_UG_AL_4/0_Sweetbriar_0_416_0_2_2

New Line.l(r:p1ulv35288-udm7499) Units=km Length=0.0137675 bus1=udm7499.1.2 bus2=p1ulv35288.1.2 switch=n enabled=y phases=2 Linecode=1P_UG_AL_1/0_Brenau_0_416_0_2_2

New Line.l(r:p1ulv26637-udm7496) Units=km Length=0.00800562 bus1=udm7496.1.2 bus2=p1ulv26637.1.2 switch=n enabled=y phases=2 Linecode=1P_UG_AL_1/0_Brenau_0_416_0_2_2

New Line.l(r:p1ulv36328-udm7496) Units=km Length=0.011722300000000001 bus1=udm7496.1.2 bus2=p1ulv36328.1.2 switch=n enabled=y phases=2 Linecode=1P_UG_AL_1/0_Brenau_0_416_0_2_2

New Line.l(r:udm7496-udm7499) Units=km Length=0.0487515 bus1=udm7499.1.2 bus2=udm7496.1.2 switch=n enabled=y phases=2 Linecode=1P_UG_AL_2/0_Converse_0_416_0_2_2

New Line.l(r:udm7499-udt1871lv) Units=km Length=0.00982965 bus1=udt1871lv.1.2 bus2=udm7499.1.2 switch=n enabled=y phases=2 Linecode=1P_UG_AL_4/0_Sweetbriar_0_416_0_2_2

New Line.l(r:p1ulv36398-udt1872lv) Units=km Length=0.015011 bus1=udt1872lv.1.2 bus2=p1ulv36398.1.2 switch=n enabled=y phases=2 Linecode=1P_UG_AL_1/0_Brenau_0_416_0_2_2

New Line.l(r:p1ulv38574-udt1872lv) Units=km Length=0.0163542 bus1=udt1872lv.1.2 bus2=p1ulv38574.1.2 switch=n enabled=y phases=2 Linecode=1P_UG_AL_1/0_Brenau_0_416_0_2_2

New Line.l(r:p1ulv32793-udm7505) Units=km Length=0.0175742 bus1=udm7505.1.2 bus2=p1ulv32793.1.2 switch=n enabled=y phases=2 Linecode=1P_UG_AL_1/0_Brenau_0_416_0_2_2

New Line.l(r:p1ulv35200-udm7505) Units=km Length=0.0157976 bus1=udm7505.1.2 bus2=p1ulv35200.1.2 switch=n enabled=y phases=2 Linecode=1P_UG_AL_1/0_Brenau_0_416_0_2_2

New Line.l(r:p1ulv4245-udm7502) Units=km Length=0.0159331 bus1=udm7502.1.2 bus2=p1ulv4245.1.2 switch=n enabled=y phases=2 Linecode=1P_UG_AL_1/0_Brenau_0_416_0_2_2

New Line.l(r:udm7502-udm7505) Units=km Length=0.00955826 bus1=udm7505.1.2 bus2=udm7502.1.2 switch=n enabled=y phases=2 Linecode=1P_UG_AL_1/0_Brenau_0_416_0_2_2

New Line.l(r:udm7505-udt1872lv) Units=km Length=0.0191182 bus1=udt1872lv.1.2 bus2=udm7505.1.2 switch=n enabled=y phases=2 Linecode=1P_UG_AL_4/0_Sweetbriar_0_416_0_2_2

New Line.l(r:p1ulv48851-udm7509) Units=km Length=0.016081000000000005 bus1=udm7509.1.2 bus2=p1ulv48851.1.2 switch=n enabled=y phases=2 Linecode=1P_UG_AL_1/0_Brenau_0_416_0_2_2

New Line.l(r:p1ulv5983-udm7503) Units=km Length=0.0177284 bus1=udm7503.1.2 bus2=p1ulv5983.1.2 switch=n enabled=y phases=2 Linecode=1P_UG_AL_1/0_Brenau_0_416_0_2_2

New Line.l(r:p1ulv28132-udm7503) Units=km Length=0.0153828 bus1=udm7503.1.2 bus2=p1ulv28132.1.2 switch=n enabled=y phases=2 Linecode=1P_UG_AL_1/0_Brenau_0_416_0_2_2

New Line.l(r:udm7503-udm7509) Units=km Length=0.00955997 bus1=udm7509.1.2 bus2=udm7503.1.2 switch=n enabled=y phases=2 Linecode=1P_UG_AL_2/0_Converse_0_416_0_2_2
