New Line.l(r:p1ulv1785-udt938lv) Units=km Length=0.0166224 bus1=udt938lv.1.2 bus2=p1ulv1785.1.2 switch=n enabled=y phases=2 Linecode=1P_OH_AL_2/0_Rucina_0_416_0_2_2

New Line.l(r:p1ulv1788-udm3844) Units=km Length=0.0147633 bus1=udm3844.1.2 bus2=p1ulv1788.1.2 switch=n enabled=y phases=2 Linecode=1P_OH_AL_2/0_Rucina_0_416_0_2_2

New Line.l(r:p1ulv16620-udm3844) Units=km Length=0.016941100000000004 bus1=udm3844.1.2 bus2=p1ulv16620.1.2 switch=n enabled=y phases=2 Linecode=1P_OH_AL_2/0_Rucina_0_416_0_2_2

New Line.l(r:udm3844-udt938lv) Units=km Length=0.0163189 bus1=udt938lv.1.2 bus2=udm3844.1.2 switch=n enabled=y phases=2 Linecode=1P_OH_AL_2/0_Rucina_0_416_0_2_2

New Line.l(r:p1ulv20838-udm3847) Units=km Length=0.0196031 bus1=udm3847.1.2 bus2=p1ulv20838.1.2 switch=n enabled=y phases=2 Linecode=1P_UG_AL_1/0_Brenau_0_416_0_2_2

New Line.l(r:p1ulv20837-udm3846) Units=km Length=0.0204651 bus1=udm3846.1.2 bus2=p1ulv20837.1.2 switch=n enabled=y phases=2 Linecode=1P_UG_AL_1/0_Brenau_0_416_0_2_2

New Line.l(r:udm3846-udm3847) Units=km Length=0.0186168 bus1=udm3847.1.2 bus2=udm3846.1.2 switch=n enabled=y phases=2 Linecode=1P_UG_AL_1/0_Brenau_0_416_0_2_2

New Line.l(r:udm3847-udt938lv) Units=km Length=0.0806368 bus1=udt938lv.1.2 bus2=udm3847.1.2 switch=n enabled=y phases=2 Linecode=1P_OH_AL_4/0_Zuzara_0_416_0_2_2

New Line.l(r:p1ulv1786-udm3848) Units=km Length=0.019374400000000003 bus1=udm3848.1.2 bus2=p1ulv1786.1.2 switch=n enabled=y phases=2 Linecode=1P_UG_AL_1/0_Brenau_0_416_0_2_2

New Line.l(r:p1ulv23357-udm3852) Units=km Length=0.0123679 bus1=udm3852.1.2 bus2=p1ulv23357.1.2 switch=n enabled=y phases=2 Linecode=1P_UG_AL_1/0_Brenau_0_416_0_2_2

New Line.l(r:udm3848-udm3852) Units=km Length=0.0975395 bus1=udm3848.1.2 bus2=udm3852.1.2 switch=n enabled=y phases=2 Linecode=1P_UG_AL_1/0_Brenau_0_416_0_2_2

New Line.l(r:udm3848-udt939lv) Units=km Length=0.00971815 bus1=udt939lv.1.2 bus2=udm3848.1.2 switch=n enabled=y phases=2 Linecode=1P_UG_AL_1/0_Brenau_0_416_0_2_2

New Line.l(r:p1ulv30883-udm3853) Units=km Length=0.0148801 bus1=udm3853.1.2 bus2=p1ulv30883.1.2 switch=n enabled=y phases=2 Linecode=1P_UG_AL_1/0_Brenau_0_416_0_2_2

New Line.l(r:p1ulv6936-udm3849) Units=km Length=0.0184309 bus1=udm3849.1.2 bus2=p1ulv6936.1.2 switch=n enabled=y phases=2 Linecode=1P_UG_AL_1/0_Brenau_0_416_0_2_2

New Line.l(r:p1ulv21649-udm3849) Units=km Length=0.0171237 bus1=udm3849.1.2 bus2=p1ulv21649.1.2 switch=n enabled=y phases=2 Linecode=1P_UG_AL_1/0_Brenau_0_416_0_2_2

New Line.l(r:p1ulv6937-udm3850) Units=km Length=0.0168109 bus1=udm3850.1.2 bus2=p1ulv6937.1.2 switch=n enabled=y phases=2 Linecode=1P_UG_AL_1/0_Brenau_0_416_0_2_2

New Line.l(r:udm3849-udm3850) Units=km Length=0.009799170000000001 bus1=udm3849.1.2 bus2=udm3850.1.2 switch=n enabled=y phases=2 Linecode=1P_UG_AL_1/0_Brenau_0_416_0_2_2

New Line.l(r:udm3849-udm3853) Units=km Length=0.009789890000000002 bus1=udm3853.1.2 bus2=udm3849.1.2 switch=n enabled=y phases=2 Linecode=1P_UG_AL_4/0_Sweetbriar_0_416_0_2_2

New Line.l(r:udm3853-udt939lv) Units=km Length=0.00972685 bus1=udt939lv.1.2 bus2=udm3853.1.2 switch=n enabled=y phases=2 Linecode=1P_UG_AL_4/0_Sweetbriar_0_416_0_2_2

New Line.l(r:p1ulv1787-udt940lv) Units=km Length=0.0297413 bus1=udt940lv.1.2 bus2=p1ulv1787.1.2 switch=n enabled=y phases=2 Linecode=1P_OH_AL_4/0_Zuzara_0_416_0_2_2

New Line.l(r:p1ulv18672-udm3855) Units=km Length=0.026612900000000002 bus1=udm3855.1.2 bus2=p1ulv18672.1.2 switch=n enabled=y phases=2 Linecode=1P_OH_AL_2/0_Rucina_0_416_0_2_2

New Line.l(r:udm3855-udt940lv) Units=km Length=0.0196849 bus1=udt940lv.1.2 bus2=udm3855.1.2 switch=n enabled=y phases=2 Linecode=1P_OH_AL_2/0_Rucina_0_416_0_2_2

New Line.l(r:p1ulv20840-udm3856) Units=km Length=0.0274432 bus1=udm3856.1.2 bus2=p1ulv20840.1.2 switch=n enabled=y phases=2 Linecode=1P_OH_AL_4/0_Zuzara_0_416_0_2_2

New Line.l(r:udm3856-udt940lv) Units=km Length=0.019679 bus1=udt940lv.1.2 bus2=udm3856.1.2 switch=n enabled=y phases=2 Linecode=1P_OH_AL_2/0_Rucina_0_416_0_2_2

New Line.l(r:p1ulv1891-udt941lv) Units=km Length=0.0233041 bus1=udt941lv.1.2 bus2=p1ulv1891.1.2 switch=n enabled=y phases=2 Linecode=1P_OH_AL_2/0_Rucina_0_416_0_2_2

New Line.l(r:p1ulv31119-udm3860) Units=km Length=0.0201857 bus1=udm3860.1.2 bus2=p1ulv31119.1.2 switch=n enabled=y phases=2 Linecode=1P_OH_AL_2/0_Rucina_0_416_0_2_2

New Line.l(r:p1ulv1892-udm3859) Units=km Length=0.0200515 bus1=udm3859.1.2 bus2=p1ulv1892.1.2 switch=n enabled=y phases=2 Linecode=1P_OH_AL_2/0_Rucina_0_416_0_2_2

New Line.l(r:udm3859-udm3860) Units=km Length=0.0192613 bus1=udm3860.1.2 bus2=udm3859.1.2 switch=n enabled=y phases=2 Linecode=1P_OH_AL_2/0_Rucina_0_416_0_2_2

New Line.l(r:udm3860-udt941lv) Units=km Length=0.019251 bus1=udt941lv.1.2 bus2=udm3860.1.2 switch=n enabled=y phases=2 Linecode=1P_OH_AL_2/0_Rucina_0_416_0_2_2

New Line.l(r:p1ulv36000-udm3862) Units=km Length=0.0211101 bus1=udm3862.1.2 bus2=p1ulv36000.1.2 switch=n enabled=y phases=2 Linecode=1P_OH_AL_2/0_Rucina_0_416_0_2_2

New Line.l(r:p1ulv1789-udm3857) Units=km Length=0.0217028 bus1=udm3857.1.2 bus2=p1ulv1789.1.2 switch=n enabled=y phases=2 Linecode=1P_OH_AL_2/0_Rucina_0_416_0_2_2

New Line.l(r:p1ulv34073-udm3861) Units=km Length=0.0205959 bus1=udm3861.1.2 bus2=p1ulv34073.1.2 switch=n enabled=y phases=2 Linecode=1P_OH_AL_2/0_Rucina_0_416_0_2_2

New Line.l(r:udm3857-udm3861) Units=km Length=0.0156016 bus1=udm3857.1.2 bus2=udm3861.1.2 switch=n enabled=y phases=2 Linecode=1P_OH_AL_2/0_Rucina_0_416_0_2_2

New Line.l(r:udm3857-udm3862) Units=km Length=0.0155917 bus1=udm3862.1.2 bus2=udm3857.1.2 switch=n enabled=y phases=2 Linecode=1P_OH_AL_2/0_Rucina_0_416_0_2_2

New Line.l(r:udm3862-udt941lv) Units=km Length=0.019251300000000002 bus1=udt941lv.1.2 bus2=udm3862.1.2 switch=n enabled=y phases=2 Linecode=1P_OH_AL_2/0_Rucina_0_416_0_2_2

New Line.l(r:p1ulv1827-udt970lv) Units=km Length=0.00889761 bus1=udt970lv.1.2 bus2=p1ulv1827.1.2 switch=n enabled=y phases=2 Linecode=1P_UG_AL_2/0_Converse_0_416_0_2_2

New Line.l(r:p1ulv1830-udm3973) Units=km Length=0.0151522 bus1=udm3973.1.2 bus2=p1ulv1830.1.2 switch=n enabled=y phases=2 Linecode=1P_UG_AL_1/0_Brenau_0_416_0_2_2

New Line.l(r:p1ulv20040-udm3973) Units=km Length=0.00834766 bus1=udm3973.1.2 bus2=p1ulv20040.1.2 switch=n enabled=y phases=2 Linecode=1P_UG_AL_4/0_Sweetbriar_0_416_0_2_2

New Line.l(r:udm3973-udt973lv) Units=km Length=0.00787718 bus1=udt973lv.1.2 bus2=udm3973.1.2 switch=n enabled=y phases=2 Linecode=1P_UG_AL_4/0_Sweetbriar_0_416_0_2_2

New Line.l(r:p1ulv16595-udm3974) Units=km Length=0.0170062 bus1=udm3974.1.2 bus2=p1ulv16595.1.2 switch=n enabled=y phases=2 Linecode=1P_UG_AL_1/0_Brenau_0_416_0_2_2

New Line.l(r:udm3974-udt973lv) Units=km Length=0.0233237 bus1=udt973lv.1.2 bus2=udm3974.1.2 switch=n enabled=y phases=2 Linecode=1P_UG_AL_1/0_Brenau_0_416_0_2_2

New Line.l(r:p1ulv19143-udm3982) Units=km Length=0.0215031 bus1=udm3982.1.2 bus2=p1ulv19143.1.2 switch=n enabled=y phases=2 Linecode=1P_UG_AL_1/0_Brenau_0_416_0_2_2

New Line.l(r:p1ulv1835-udm3981) Units=km Length=0.021201500000000005 bus1=udm3981.1.2 bus2=p1ulv1835.1.2 switch=n enabled=y phases=2 Linecode=1P_UG_AL_1/0_Brenau_0_416_0_2_2

New Line.l(r:udm3981-udm3982) Units=km Length=0.0095317 bus1=udm3982.1.2 bus2=udm3981.1.2 switch=n enabled=y phases=2 Linecode=1P_UG_AL_1/0_Brenau_0_416_0_2_2

New Line.l(r:udm3982-udt978lv) Units=km Length=0.00954189 bus1=udt978lv.1.2 bus2=udm3982.1.2 switch=n enabled=y phases=2 Linecode=1P_UG_AL_1/0_Brenau_0_416_0_2_2

New Line.l(r:p1ulv22234-udm3983) Units=km Length=0.0213536 bus1=udm3983.1.2 bus2=p1ulv22234.1.2 switch=n enabled=y phases=2 Linecode=1P_UG_AL_1/0_Brenau_0_416_0_2_2

New Line.l(r:udm3983-udt978lv) Units=km Length=0.0381374 bus1=udt978lv.1.2 bus2=udm3983.1.2 switch=n enabled=y phases=2 Linecode=1P_UG_AL_1/0_Brenau_0_416_0_2_2

New Line.l(r:p1ulv6284-udt979lv) Units=km Length=0.019900100000000004 bus1=udt979lv.1.2 bus2=p1ulv6284.1.2 switch=n enabled=y phases=2 Linecode=1P_UG_AL_1/0_Brenau_0_416_0_2_2

New Line.l(r:p1ulv21997-udm3987) Units=km Length=0.019168 bus1=udm3987.1.2 bus2=p1ulv21997.1.2 switch=n enabled=y phases=2 Linecode=1P_UG_AL_1/0_Brenau_0_416_0_2_2

New Line.l(r:p1ulv23568-udm3987) Units=km Length=0.0211351 bus1=udm3987.1.2 bus2=p1ulv23568.1.2 switch=n enabled=y phases=2 Linecode=1P_UG_AL_1/0_Brenau_0_416_0_2_2

New Line.l(r:p1ulv1839-udm3985) Units=km Length=0.0135964 bus1=udm3985.1.2 bus2=p1ulv1839.1.2 switch=n enabled=y phases=2 Linecode=1P_UG_AL_1/0_Brenau_0_416_0_2_2

New Line.l(r:p1ulv1836-udm3984) Units=km Length=0.01215 bus1=udm3984.1.2 bus2=p1ulv1836.1.2 switch=n enabled=y phases=2 Linecode=1P_UG_AL_1/0_Brenau_0_416_0_2_2

New Line.l(r:udm3984-udm3985) Units=km Length=0.04824910000000001 bus1=udm3985.1.2 bus2=udm3984.1.2 switch=n enabled=y phases=2 Linecode=1P_UG_AL_1/0_Brenau_0_416_0_2_2

New Line.l(r:udm3985-udm3987) Units=km Length=0.00963565 bus1=udm3987.1.2 bus2=udm3985.1.2 switch=n enabled=y phases=2 Linecode=1P_UG_AL_1/0_Brenau_0_416_0_2_2

New Line.l(r:udm3987-udt979lv) Units=km Length=0.00784645 bus1=udt979lv.1.2 bus2=udm3987.1.2 switch=n enabled=y phases=2 Linecode=1P_UG_AL_4/0_Sweetbriar_0_416_0_2_2

New Line.l(r:p1ulv29125-udm3989) Units=km Length=0.01864 bus1=udm3989.1.2 bus2=p1ulv29125.1.2 switch=n enabled=y phases=2 Linecode=1P_UG_AL_1/0_Brenau_0_416_0_2_2

New Line.l(r:udm3989-udt979lv) Units=km Length=0.0521197 bus1=udt979lv.1.2 bus2=udm3989.1.2 switch=n enabled=y phases=2 Linecode=1P_UG_AL_1/0_Brenau_0_416_0_2_2

New Line.l(r:p1ulv1837-udt980lv) Units=km Length=0.0051017 bus1=udt980lv.1.2 bus2=p1ulv1837.1.2 switch=n enabled=y phases=2 Linecode=1P_UG_AL_1/0_Brenau_0_416_0_2_2

New Line.l(r:p1ulv15725-udt980lv) Units=km Length=0.00930336 bus1=udt980lv.1.2 bus2=p1ulv15725.1.2 switch=n enabled=y phases=2 Linecode=1P_UG_AL_1/0_Brenau_0_416_0_2_2

New Line.l(r:p1ulv25879-udm3992) Units=km Length=0.0206226 bus1=udm3992.1.2 bus2=p1ulv25879.1.2 switch=n enabled=y phases=2 Linecode=1P_UG_AL_1/0_Brenau_0_416_0_2_2

New Line.l(r:udm3992-udt980lv) Units=km Length=0.067929 bus1=udt980lv.1.2 bus2=udm3992.1.2 switch=n enabled=y phases=2 Linecode=1P_UG_AL_1/0_Brenau_0_416_0_2_2

New Line.l(r:p1ulv1838-udm3993) Units=km Length=0.019947500000000003 bus1=udm3993.1.2 bus2=p1ulv1838.1.2 switch=n enabled=y phases=2 Linecode=1P_UG_AL_1/0_Brenau_0_416_0_2_2

New Line.l(r:udm3993-udt981lv) Units=km Length=0.00973629 bus1=udt981lv.1.2 bus2=udm3993.1.2 switch=n enabled=y phases=2 Linecode=1P_UG_AL_1/0_Brenau_0_416_0_2_2

New Line.l(r:p1ulv23139-udm3994) Units=km Length=0.0170665 bus1=udm3994.1.2 bus2=p1ulv23139.1.2 switch=n enabled=y phases=2 Linecode=1P_UG_AL_1/0_Brenau_0_416_0_2_2

New Line.l(r:udm3994-udt981lv) Units=km Length=0.00973629 bus1=udt981lv.1.2 bus2=udm3994.1.2 switch=n enabled=y phases=2 Linecode=1P_UG_AL_1/0_Brenau_0_416_0_2_2

New Line.l(r:p1ulv1840-udt982lv) Units=km Length=0.018815 bus1=udt982lv.1.2 bus2=p1ulv1840.1.2 switch=n enabled=y phases=2 Linecode=1P_UG_AL_1/0_Brenau_0_416_0_2_2

New Line.l(r:p1ulv6285-udt982lv) Units=km Length=0.014415 bus1=udt982lv.1.2 bus2=p1ulv6285.1.2 switch=n enabled=y phases=2 Linecode=1P_UG_AL_1/0_Brenau_0_416_0_2_2

New Line.l(r:p1ulv35978-udm3997) Units=km Length=0.017611 bus1=udm3997.1.2 bus2=p1ulv35978.1.2 switch=n enabled=y phases=2 Linecode=1P_UG_AL_1/0_Brenau_0_416_0_2_2

New Line.l(r:udm3997-udt982lv) Units=km Length=0.00730229 bus1=udt982lv.1.2 bus2=udm3997.1.2 switch=n enabled=y phases=2 Linecode=1P_UG_AL_1/0_Brenau_0_416_0_2_2

New Line.l(r:p1ulv34051-udt983lv) Units=km Length=0.0206242 bus1=udt983lv.1.2 bus2=p1ulv34051.1.2 switch=n enabled=y phases=2 Linecode=1P_UG_AL_1/0_Brenau_0_416_0_2_2

New Line.l(r:p1ulv22408-udm4001) Units=km Length=0.0149647 bus1=udm4001.1.2 bus2=p1ulv22408.1.2 switch=n enabled=y phases=2 Linecode=1P_UG_AL_1/0_Brenau_0_416_0_2_2

New Line.l(r:p1ulv19014-udm4000) Units=km Length=0.0173462 bus1=udm4000.1.2 bus2=p1ulv19014.1.2 switch=n enabled=y phases=2 Linecode=1P_UG_AL_1/0_Brenau_0_416_0_2_2

New Line.l(r:p1ulv1849-udm3999) Units=km Length=0.0170441 bus1=udm3999.1.2 bus2=p1ulv1849.1.2 switch=n enabled=y phases=2 Linecode=1P_UG_AL_1/0_Brenau_0_416_0_2_2

New Line.l(r:udm3999-udm4000) Units=km Length=0.00886612 bus1=udm4000.1.2 bus2=udm3999.1.2 switch=n enabled=y phases=2 Linecode=1P_UG_AL_1/0_Brenau_0_416_0_2_2

New Line.l(r:udm4000-udm4001) Units=km Length=0.00935481 bus1=udm4001.1.2 bus2=udm4000.1.2 switch=n enabled=y phases=2 Linecode=1P_UG_AL_1/0_Brenau_0_416_0_2_2

New Line.l(r:udm4001-udt983lv) Units=km Length=0.00935481 bus1=udt983lv.1.2 bus2=udm4001.1.2 switch=n enabled=y phases=2 Linecode=1P_UG_AL_2/0_Converse_0_416_0_2_2

New Line.l(r:p1ulv32494-udm4003) Units=km Length=0.0151124 bus1=udm4003.1.2 bus2=p1ulv32494.1.2 switch=n enabled=y phases=2 Linecode=1P_UG_AL_1/0_Brenau_0_416_0_2_2

New Line.l(r:p1ulv1841-udm3998) Units=km Length=0.0159445 bus1=udm3998.1.2 bus2=p1ulv1841.1.2 switch=n enabled=y phases=2 Linecode=1P_UG_AL_1/0_Brenau_0_416_0_2_2

New Line.l(r:p1ulv27587-udm4002) Units=km Length=0.0172901 bus1=udm4002.1.2 bus2=p1ulv27587.1.2 switch=n enabled=y phases=2 Linecode=1P_UG_AL_1/0_Brenau_0_416_0_2_2

New Line.l(r:udm3998-udm4002) Units=km Length=0.00935481 bus1=udm3998.1.2 bus2=udm4002.1.2 switch=n enabled=y phases=2 Linecode=1P_UG_AL_1/0_Brenau_0_416_0_2_2

New Line.l(r:udm3998-udm4003) Units=km Length=0.009364810000000001 bus1=udm4003.1.2 bus2=udm3998.1.2 switch=n enabled=y phases=2 Linecode=1P_UG_AL_1/0_Brenau_0_416_0_2_2

New Line.l(r:udm4003-udt983lv) Units=km Length=0.0187099 bus1=udt983lv.1.2 bus2=udm4003.1.2 switch=n enabled=y phases=2 Linecode=1P_UG_AL_2/0_Converse_0_416_0_2_2

New Line.l(r:p1ulv1843-udm4007) Units=km Length=0.0162082 bus1=udm4007.1.2 bus2=p1ulv1843.1.2 switch=n enabled=y phases=2 Linecode=1P_UG_AL_1/0_Brenau_0_416_0_2_2

New Line.l(r:p1ulv27632-udm4007) Units=km Length=0.0128945 bus1=udm4007.1.2 bus2=p1ulv27632.1.2 switch=n enabled=y phases=2 Linecode=1P_UG_AL_1/0_Brenau_0_416_0_2_2

New Line.l(r:udm4007-udt985lv) Units=km Length=0.00921456 bus1=udt985lv.1.2 bus2=udm4007.1.2 switch=n enabled=y phases=2 Linecode=1P_UG_AL_1/0_Brenau_0_416_0_2_2

New Line.l(r:p1ulv6289-udm4008) Units=km Length=0.0171663 bus1=udm4008.1.2 bus2=p1ulv6289.1.2 switch=n enabled=y phases=2 Linecode=1P_UG_AL_1/0_Brenau_0_416_0_2_2

New Line.l(r:udm4008-udt985lv) Units=km Length=0.028764900000000003 bus1=udt985lv.1.2 bus2=udm4008.1.2 switch=n enabled=y phases=2 Linecode=1P_UG_AL_1/0_Brenau_0_416_0_2_2

New Line.l(r:p1ulv6296-udm4009) Units=km Length=0.018160100000000002 bus1=udm4009.1.2 bus2=p1ulv6296.1.2 switch=n enabled=y phases=2 Linecode=1P_UG_AL_1/0_Brenau_0_416_0_2_2

New Line.l(r:udm4009-udt985lv) Units=km Length=0.0413229 bus1=udt985lv.1.2 bus2=udm4009.1.2 switch=n enabled=y phases=2 Linecode=1P_UG_AL_1/0_Brenau_0_416_0_2_2

New Line.l(r:p1ulv1844-udm4011) Units=km Length=0.0218282 bus1=udm4011.1.2 bus2=p1ulv1844.1.2 switch=n enabled=y phases=2 Linecode=1P_UG_AL_1/0_Brenau_0_416_0_2_2

New Line.l(r:p1ulv23609-udm4011) Units=km Length=0.0161531 bus1=udm4011.1.2 bus2=p1ulv23609.1.2 switch=n enabled=y phases=2 Linecode=1P_UG_AL_1/0_Brenau_0_416_0_2_2

New Line.l(r:p1ulv20137-udm4015) Units=km Length=0.0164775 bus1=udm4015.1.2 bus2=p1ulv20137.1.2 switch=n enabled=y phases=2 Linecode=1P_UG_AL_1/0_Brenau_0_416_0_2_2

New Line.l(r:p1ulv32540-udm4015) Units=km Length=0.019391 bus1=udm4015.1.2 bus2=p1ulv32540.1.2 switch=n enabled=y phases=2 Linecode=1P_UG_AL_1/0_Brenau_0_416_0_2_2

New Line.l(r:udm4011-udm4015) Units=km Length=0.01956 bus1=udm4011.1.2 bus2=udm4015.1.2 switch=n enabled=y phases=2 Linecode=1P_UG_AL_1/0_Brenau_0_416_0_2_2

New Line.l(r:udm4011-udt986lv) Units=km Length=0.00978001 bus1=udt986lv.1.2 bus2=udm4011.1.2 switch=n enabled=y phases=2 Linecode=1P_UG_AL_4/0_Sweetbriar_0_416_0_2_2

New Line.l(r:p1ulv13015-udm4013) Units=km Length=0.0209002 bus1=udm4013.1.2 bus2=p1ulv13015.1.2 switch=n enabled=y phases=2 Linecode=1P_UG_AL_1/0_Brenau_0_416_0_2_2

New Line.l(r:p1ulv18647-udm4013) Units=km Length=0.0173492 bus1=udm4013.1.2 bus2=p1ulv18647.1.2 switch=n enabled=y phases=2 Linecode=1P_UG_AL_1/0_Brenau_0_416_0_2_2

New Line.l(r:p1ulv1845-udm4012) Units=km Length=0.0220336 bus1=udm4012.1.2 bus2=p1ulv1845.1.2 switch=n enabled=y phases=2 Linecode=1P_UG_AL_1/0_Brenau_0_416_0_2_2

New Line.l(r:p1ulv36017-udm4018) Units=km Length=0.0218344 bus1=udm4018.1.2 bus2=p1ulv36017.1.2 switch=n enabled=y phases=2 Linecode=1P_UG_AL_1/0_Brenau_0_416_0_2_2

New Line.l(r:udm4012-udm4018) Units=km Length=0.0278408 bus1=udm4012.1.2 bus2=udm4018.1.2 switch=n enabled=y phases=2 Linecode=1P_UG_AL_1/0_Brenau_0_416_0_2_2

New Line.l(r:udm4012-udm4013) Units=km Length=0.00928034 bus1=udm4013.1.2 bus2=udm4012.1.2 switch=n enabled=y phases=2 Linecode=1P_UG_AL_1/0_Brenau_0_416_0_2_2

New Line.l(r:udm4013-udt986lv) Units=km Length=0.00978 bus1=udt986lv.1.2 bus2=udm4013.1.2 switch=n enabled=y phases=2 Linecode=1P_UG_AL_2/0_Converse_0_416_0_2_2

New Line.l(r:p1ulv1847-udt987lv) Units=km Length=0.022812700000000005 bus1=udt987lv.1.2 bus2=p1ulv1847.1.2 switch=n enabled=y phases=2 Linecode=1P_UG_AL_1/0_Brenau_0_416_0_2_2

New Line.l(r:p1ulv1846-udm4019) Units=km Length=0.0144416 bus1=udm4019.1.2 bus2=p1ulv1846.1.2 switch=n enabled=y phases=2 Linecode=1P_UG_AL_1/0_Brenau_0_416_0_2_2

New Line.l(r:udm4019-udt987lv) Units=km Length=0.0191401 bus1=udt987lv.1.2 bus2=udm4019.1.2 switch=n enabled=y phases=2 Linecode=1P_UG_AL_1/0_Brenau_0_416_0_2_2

New Line.l(r:p1ulv1848-udm4021) Units=km Length=0.0243664 bus1=udm4021.1.2 bus2=p1ulv1848.1.2 switch=n enabled=y phases=2 Linecode=1P_UG_AL_1/0_Brenau_0_416_0_2_2

New Line.l(r:udm4021-udt987lv) Units=km Length=0.0191401 bus1=udt987lv.1.2 bus2=udm4021.1.2 switch=n enabled=y phases=2 Linecode=1P_UG_AL_1/0_Brenau_0_416_0_2_2

New Line.l(r:p1ulv1850-udt988lv) Units=km Length=0.0439931 bus1=udt988lv.1.2 bus2=p1ulv1850.1.2 switch=n enabled=y phases=2 Linecode=1P_UG_AL_1/0_Brenau_0_416_0_2_2

New Line.l(r:p1ulv1852-udm4023) Units=km Length=0.0182579 bus1=udm4023.1.2 bus2=p1ulv1852.1.2 switch=n enabled=y phases=2 Linecode=1P_UG_AL_1/0_Brenau_0_416_0_2_2

New Line.l(r:udm4023-udt988lv) Units=km Length=0.00928026 bus1=udt988lv.1.2 bus2=udm4023.1.2 switch=n enabled=y phases=2 Linecode=1P_UG_AL_1/0_Brenau_0_416_0_2_2

New Line.l(r:p1ulv1853-udm4031) Units=km Length=0.0269904 bus1=udm4031.1.2 bus2=p1ulv1853.1.2 switch=n enabled=y phases=2 Linecode=1P_UG_AL_1/0_Brenau_0_416_0_2_2

New Line.l(r:udm4031-udt990lv) Units=km Length=0.0382802 bus1=udt990lv.1.2 bus2=udm4031.1.2 switch=n enabled=y phases=2 Linecode=1P_UG_AL_1/0_Brenau_0_416_0_2_2

New Line.l(r:p1ulv30954-udm4033) Units=km Length=0.026309800000000005 bus1=udm4033.1.2 bus2=p1ulv30954.1.2 switch=n enabled=y phases=2 Linecode=1P_UG_AL_1/0_Brenau_0_416_0_2_2

New Line.l(r:p1ulv1857-udm4032) Units=km Length=0.0285889 bus1=udm4032.1.2 bus2=p1ulv1857.1.2 switch=n enabled=y phases=2 Linecode=1P_UG_AL_1/0_Brenau_0_416_0_2_2

New Line.l(r:udm4032-udm4033) Units=km Length=0.00957005 bus1=udm4033.1.2 bus2=udm4032.1.2 switch=n enabled=y phases=2 Linecode=1P_UG_AL_1/0_Brenau_0_416_0_2_2

New Line.l(r:udm4033-udt990lv) Units=km Length=0.00957005 bus1=udt990lv.1.2 bus2=udm4033.1.2 switch=n enabled=y phases=2 Linecode=1P_UG_AL_1/0_Brenau_0_416_0_2_2

New Line.l(r:p1ulv1855-udm4037) Units=km Length=0.024660700000000004 bus1=udm4037.1.2 bus2=p1ulv1855.1.2 switch=n enabled=y phases=2 Linecode=1P_UG_AL_1/0_Brenau_0_416_0_2_2

New Line.l(r:p1ulv15361-udm4037) Units=km Length=0.023564 bus1=udm4037.1.2 bus2=p1ulv15361.1.2 switch=n enabled=y phases=2 Linecode=1P_UG_AL_1/0_Brenau_0_416_0_2_2

New Line.l(r:udm4037-udt992lv) Units=km Length=0.00957005 bus1=udt992lv.1.2 bus2=udm4037.1.2 switch=n enabled=y phases=2 Linecode=1P_UG_AL_1/0_Brenau_0_416_0_2_2

New Line.l(r:p1ulv25220-udm4039) Units=km Length=0.022804200000000004 bus1=udm4039.1.2 bus2=p1ulv25220.1.2 switch=n enabled=y phases=2 Linecode=1P_UG_AL_1/0_Brenau_0_416_0_2_2

New Line.l(r:udm4039-udt992lv) Units=km Length=0.0191401 bus1=udt992lv.1.2 bus2=udm4039.1.2 switch=n enabled=y phases=2 Linecode=1P_UG_AL_1/0_Brenau_0_416_0_2_2

New Line.l(r:p1ulv21901-udt993lv) Units=km Length=0.04281800000000001 bus1=udt993lv.1.2 bus2=p1ulv21901.1.2 switch=n enabled=y phases=2 Linecode=1P_UG_AL_1/0_Brenau_0_416_0_2_2

New Line.l(r:p1ulv1858-udm4040) Units=km Length=0.0950414 bus1=udm4040.1.2 bus2=p1ulv1858.1.2 switch=n enabled=y phases=2 Linecode=1P_UG_AL_1/0_Brenau_0_416_0_2_2

New Line.l(r:p1ulv1859-udm4040) Units=km Length=0.07181070000000002 bus1=udm4040.1.2 bus2=p1ulv1859.1.2 switch=n enabled=y phases=2 Linecode=1P_UG_AL_1/0_Brenau_0_416_0_2_2

New Line.l(r:udm4040-udt993lv) Units=km Length=0.0294815 bus1=udt993lv.1.2 bus2=udm4040.1.2 switch=n enabled=y phases=2 Linecode=1P_UG_AL_4/0_Sweetbriar_0_416_0_2_2

New Line.l(r:p1ulv15405-udm4042) Units=km Length=0.0262593 bus1=udm4042.1.2 bus2=p1ulv15405.1.2 switch=n enabled=y phases=2 Linecode=1P_UG_AL_1/0_Brenau_0_416_0_2_2

New Line.l(r:p1ulv17123-udm4043) Units=km Length=0.0188864 bus1=udm4043.1.2 bus2=p1ulv17123.1.2 switch=n enabled=y phases=2 Linecode=1P_UG_AL_1/0_Brenau_0_416_0_2_2

New Line.l(r:udm4042-udm4043) Units=km Length=0.0294814 bus1=udm4042.1.2 bus2=udm4043.1.2 switch=n enabled=y phases=2 Linecode=1P_UG_AL_1/0_Brenau_0_416_0_2_2

New Line.l(r:udm4042-udt993lv) Units=km Length=0.00983051 bus1=udt993lv.1.2 bus2=udm4042.1.2 switch=n enabled=y phases=2 Linecode=1P_UG_AL_1/0_Brenau_0_416_0_2_2

New Line.l(r:p1ulv1860-udt994lv) Units=km Length=0.0554078 bus1=udt994lv.1.2 bus2=p1ulv1860.1.2 switch=n enabled=y phases=2 Linecode=1P_OH_AL_4/0_Zuzara_0_416_0_2_2

New Line.l(r:p1ulv1861-udt994lv) Units=km Length=0.0781884 bus1=udt994lv.1.2 bus2=p1ulv1861.1.2 switch=n enabled=y phases=2 Linecode=1P_OH_AL_4/0_Zuzara_0_416_0_2_2

New Line.l(r:p1ulv1862-udt995lv) Units=km Length=0.08445380000000001 bus1=udt995lv.1.2 bus2=p1ulv1862.1.2 switch=n enabled=y phases=2 Linecode=1P_OH_AL_4/0_Zuzara_0_416_0_2_2

New Line.l(r:p1ulv1863-udm4048) Units=km Length=0.018277600000000005 bus1=udm4048.1.2 bus2=p1ulv1863.1.2 switch=n enabled=y phases=2 Linecode=1P_UG_AL_1/0_Brenau_0_416_0_2_2

New Line.l(r:udm4048-udt996lv) Units=km Length=0.0374362 bus1=udt996lv.1.2 bus2=udm4048.1.2 switch=n enabled=y phases=2 Linecode=1P_UG_AL_1/0_Brenau_0_416_0_2_2

New Line.l(r:p1ulv30770-udm4050) Units=km Length=0.0134148 bus1=udm4050.1.2 bus2=p1ulv30770.1.2 switch=n enabled=y phases=2 Linecode=1P_UG_AL_1/0_Brenau_0_416_0_2_2

New Line.l(r:p1ulv13060-udm4049) Units=km Length=0.0308569 bus1=udm4049.1.2 bus2=p1ulv13060.1.2 switch=n enabled=y phases=2 Linecode=1P_UG_AL_1/0_Brenau_0_416_0_2_2

New Line.l(r:udm4049-udm4050) Units=km Length=0.009356930000000001 bus1=udm4050.1.2 bus2=udm4049.1.2 switch=n enabled=y phases=2 Linecode=1P_UG_AL_1/0_Brenau_0_416_0_2_2

New Line.l(r:udm4050-udt996lv) Units=km Length=0.00936654 bus1=udt996lv.1.2 bus2=udm4050.1.2 switch=n enabled=y phases=2 Linecode=1P_UG_AL_1/0_Brenau_0_416_0_2_2

New Line.l(r:p1ulv17167-udt997lv) Units=km Length=0.0159888 bus1=udt997lv.1.2 bus2=p1ulv17167.1.2 switch=n enabled=y phases=2 Linecode=1P_UG_AL_1/0_Brenau_0_416_0_2_2

New Line.l(r:p1ulv1864-udm4051) Units=km Length=0.0197152 bus1=udm4051.1.2 bus2=p1ulv1864.1.2 switch=n enabled=y phases=2 Linecode=1P_OH_AL_2/0_Rucina_0_416_0_2_2

New Line.l(r:p1ulv13560-udm4052) Units=km Length=0.0180277 bus1=udm4052.1.2 bus2=p1ulv13560.1.2 switch=n enabled=y phases=2 Linecode=1P_OH_AL_2/0_Rucina_0_416_0_2_2

New Line.l(r:udm4051-udm4052) Units=km Length=0.0333188 bus1=udm4051.1.2 bus2=udm4052.1.2 switch=n enabled=y phases=2 Linecode=1P_OH_AL_4/0_Zuzara_0_416_0_2_2

New Line.l(r:udm4051-udt997lv) Units=km Length=0.019588500000000002 bus1=udt997lv.1.2 bus2=udm4051.1.2 switch=n enabled=y phases=2 Linecode=1P_OH_AL_2/0_Rucina_0_416_0_2_2

New Line.l(r:p1ulv18560-udm4056) Units=km Length=0.018747400000000004 bus1=udm4056.1.2 bus2=p1ulv18560.1.2 switch=n enabled=y phases=2 Linecode=1P_UG_AL_1/0_Brenau_0_416_0_2_2

New Line.l(r:p1ulv18441-udm4055) Units=km Length=0.017984900000000005 bus1=udm4055.1.2 bus2=p1ulv18441.1.2 switch=n enabled=y phases=2 Linecode=1P_UG_AL_1/0_Brenau_0_416_0_2_2

New Line.l(r:p1ulv17441-udm4054) Units=km Length=0.0152428 bus1=udm4054.1.2 bus2=p1ulv17441.1.2 switch=n enabled=y phases=2 Linecode=1P_OH_AL_2/0_Rucina_0_416_0_2_2

New Line.l(r:udm4054-udm4055) Units=km Length=0.0767986 bus1=udm4055.1.2 bus2=udm4054.1.2 switch=n enabled=y phases=2 Linecode=1P_OH_AL_4/0_Zuzara_0_416_0_2_2

New Line.l(r:udm4055-udm4056) Units=km Length=0.0183261 bus1=udm4056.1.2 bus2=udm4055.1.2 switch=n enabled=y phases=2 Linecode=1P_UG_AL_1/0_Brenau_0_416_0_2_2

New Line.l(r:udm4056-udt997lv) Units=km Length=0.00893508 bus1=udt997lv.1.2 bus2=udm4056.1.2 switch=n enabled=y phases=2 Linecode=1P_UG_AL_4/0_Sweetbriar_0_416_0_2_2

New Line.l(r:p1ulv13402-udt998lv) Units=km Length=0.00745853 bus1=udt998lv.1.2 bus2=p1ulv13402.1.2 switch=n enabled=y phases=2 Linecode=1P_UG_AL_1/0_Brenau_0_416_0_2_2

New Line.l(r:p1ulv1865-udm4057) Units=km Length=0.025322900000000002 bus1=udm4057.1.2 bus2=p1ulv1865.1.2 switch=n enabled=y phases=2 Linecode=1P_UG_AL_1/0_Brenau_0_416_0_2_2

New Line.l(r:udm4057-udt998lv) Units=km Length=0.00983051 bus1=udt998lv.1.2 bus2=udm4057.1.2 switch=n enabled=y phases=2 Linecode=1P_UG_AL_1/0_Brenau_0_416_0_2_2

New Line.l(r:p1ulv24641-udt999lv) Units=km Length=0.0156893 bus1=udt999lv.1.2 bus2=p1ulv24641.1.2 switch=n enabled=y phases=2 Linecode=1P_OH_AL_2/0_Rucina_0_416_0_2_2

New Line.l(r:p1ulv1866-udm4059) Units=km Length=0.0334907 bus1=udm4059.1.2 bus2=p1ulv1866.1.2 switch=n enabled=y phases=2 Linecode=1P_OH_AL_4/0_Zuzara_0_416_0_2_2

New Line.l(r:p1ulv6307-udm4059) Units=km Length=0.0244772 bus1=udm4059.1.2 bus2=p1ulv6307.1.2 switch=n enabled=y phases=2 Linecode=1P_OH_AL_2/0_Rucina_0_416_0_2_2

New Line.l(r:p1ulv1870-udm4060) Units=km Length=0.0314569 bus1=udm4060.1.2 bus2=p1ulv1870.1.2 switch=n enabled=y phases=2 Linecode=1P_OH_AL_4/0_Zuzara_0_416_0_2_2

New Line.l(r:udm4059-udm4060) Units=km Length=0.019735 bus1=udm4059.1.2 bus2=udm4060.1.2 switch=n enabled=y phases=2 Linecode=1P_OH_AL_2/0_Rucina_0_416_0_2_2

New Line.l(r:udm4059-udt999lv) Units=km Length=0.0197346 bus1=udt999lv.1.2 bus2=udm4059.1.2 switch=n enabled=y phases=2 Linecode=1P_OH_AL_2/0_Rucina_0_416_0_2_2

New Line.l(r:p1ulv23260-udm4062) Units=km Length=0.0154674 bus1=udm4062.1.2 bus2=p1ulv23260.1.2 switch=n enabled=y phases=2 Linecode=1P_UG_AL_1/0_Brenau_0_416_0_2_2

New Line.l(r:udm4062-udt999lv) Units=km Length=0.028758 bus1=udt999lv.1.2 bus2=udm4062.1.2 switch=n enabled=y phases=2 Linecode=1P_OH_AL_4/0_Zuzara_0_416_0_2_2

New Line.l(r:p1ulv1867-udt1000lv) Units=km Length=0.0193184 bus1=udt1000lv.1.2 bus2=p1ulv1867.1.2 switch=n enabled=y phases=2 Linecode=1P_OH_AL_2/0_Rucina_0_416_0_2_2

New Line.l(r:p1ulv25313-udt1000lv) Units=km Length=0.0226362 bus1=udt1000lv.1.2 bus2=p1ulv25313.1.2 switch=n enabled=y phases=2 Linecode=1P_OH_AL_2/0_Rucina_0_416_0_2_2

New Line.l(r:p1ulv6297-udm4065) Units=km Length=0.0208425 bus1=udm4065.1.2 bus2=p1ulv6297.1.2 switch=n enabled=y phases=2 Linecode=1P_OH_AL_2/0_Rucina_0_416_0_2_2

New Line.l(r:p1ulv13179-udm4066) Units=km Length=0.0162588 bus1=udm4066.1.2 bus2=p1ulv13179.1.2 switch=n enabled=y phases=2 Linecode=1P_OH_AL_2/0_Rucina_0_416_0_2_2

New Line.l(r:udm4065-udm4066) Units=km Length=0.016260000000000004 bus1=udm4065.1.2 bus2=udm4066.1.2 switch=n enabled=y phases=2 Linecode=1P_OH_AL_2/0_Rucina_0_416_0_2_2

New Line.l(r:udm4065-udt1000lv) Units=km Length=0.01625 bus1=udt1000lv.1.2 bus2=udm4065.1.2 switch=n enabled=y phases=2 Linecode=1P_OH_AL_2/0_Rucina_0_416_0_2_2

New Line.l(r:p1ulv23132-udm4068) Units=km Length=0.0148649 bus1=udm4068.1.2 bus2=p1ulv23132.1.2 switch=n enabled=y phases=2 Linecode=1P_OH_AL_2/0_Rucina_0_416_0_2_2

New Line.l(r:p1ulv20481-udm4067) Units=km Length=0.0187097 bus1=udm4067.1.2 bus2=p1ulv20481.1.2 switch=n enabled=y phases=2 Linecode=1P_OH_AL_2/0_Rucina_0_416_0_2_2

New Line.l(r:p1ulv37377-udm4067) Units=km Length=0.0120787 bus1=udm4067.1.2 bus2=p1ulv37377.1.2 switch=n enabled=y phases=2 Linecode=1P_OH_AL_2/0_Rucina_0_416_0_2_2

New Line.l(r:udm4067-udm4068) Units=km Length=0.017849 bus1=udm4068.1.2 bus2=udm4067.1.2 switch=n enabled=y phases=2 Linecode=1P_OH_AL_2/0_Rucina_0_416_0_2_2

New Line.l(r:udm4068-udt1000lv) Units=km Length=0.016260000000000004 bus1=udt1000lv.1.2 bus2=udm4068.1.2 switch=n enabled=y phases=2 Linecode=1P_OH_AL_2/0_Rucina_0_416_0_2_2

New Line.l(r:p1ulv1869-udm4072) Units=km Length=0.0212182 bus1=udm4072.1.2 bus2=p1ulv1869.1.2 switch=n enabled=y phases=2 Linecode=1P_UG_AL_1/0_Brenau_0_416_0_2_2

New Line.l(r:udm4072-udt1002lv) Units=km Length=0.0146162 bus1=udt1002lv.1.2 bus2=udm4072.1.2 switch=n enabled=y phases=2 Linecode=1P_OH_AL_2/0_Rucina_0_416_0_2_2

New Line.l(r:p1ulv1878-udm4073) Units=km Length=0.035126 bus1=udm4073.1.2 bus2=p1ulv1878.1.2 switch=n enabled=y phases=2 Linecode=1P_UG_AL_1/0_Brenau_0_416_0_2_2

New Line.l(r:udm4073-udt1002lv) Units=km Length=0.0729357 bus1=udt1002lv.1.2 bus2=udm4073.1.2 switch=n enabled=y phases=2 Linecode=1P_OH_AL_4/0_Zuzara_0_416_0_2_2

New Line.l(r:p1ulv25573-udm4074) Units=km Length=0.0136868 bus1=udm4074.1.2 bus2=p1ulv25573.1.2 switch=n enabled=y phases=2 Linecode=1P_UG_AL_4/0_Sweetbriar_0_416_0_2_2

New Line.l(r:udm4074-udt1002lv) Units=km Length=0.014606500000000001 bus1=udt1002lv.1.2 bus2=udm4074.1.2 switch=n enabled=y phases=2 Linecode=1P_OH_AL_2/0_Rucina_0_416_0_2_2

New Line.l(r:p1ulv1871-udt1003lv) Units=km Length=0.0271164 bus1=udt1003lv.1.2 bus2=p1ulv1871.1.2 switch=n enabled=y phases=2 Linecode=1P_OH_AL_4/0_Zuzara_0_416_0_2_2

New Line.l(r:p1ulv1873-udm4076) Units=km Length=0.0267272 bus1=udm4076.1.2 bus2=p1ulv1873.1.2 switch=n enabled=y phases=2 Linecode=1P_OH_AL_2/0_Rucina_0_416_0_2_2

New Line.l(r:p1ulv13700-udm4079) Units=km Length=0.0293704 bus1=udm4079.1.2 bus2=p1ulv13700.1.2 switch=n enabled=y phases=2 Linecode=1P_OH_AL_4/0_Zuzara_0_416_0_2_2
