New Load.load_p1ulv1785 conn=wye bus1=p1ulv1785.1.2 kV=0.2080002494301389 Vminpu=0.8 Vmaxpu=1.2 model=1 kW=11.27 kvar=0.7694756260336619 Phases=2

New Load.load_p1ulv1786 conn=wye bus1=p1ulv1786.1.2 kV=0.2080002494301389 Vminpu=0.8 Vmaxpu=1.2 model=1 kW=10.81 kvar=0.6703963496338274 Phases=2

New Load.load_p1ulv1787 conn=wye bus1=p1ulv1787.1.2 kV=0.2080002494301389 Vminpu=0.8 Vmaxpu=1.2 model=1 kW=10.94 kvar=0.7003258045487328 Phases=2

New Load.load_p1ulv1788 conn=wye bus1=p1ulv1788.1.2 kV=0.2080002494301389 Vminpu=0.8 Vmaxpu=1.2 model=1 kW=11.76 kvar=0.8694859858061031 Phases=2

New Load.load_p1ulv1789 conn=wye bus1=p1ulv1789.1.2 kV=0.2080002494301389 Vminpu=0.8 Vmaxpu=1.2 model=1 kW=10.26 kvar=0.5604479951096709 Phases=2

New Load.load_p1ulv1812 conn=wye bus1=p1ulv1812.1.2.3 kV=0.48 Vminpu=0.8 Vmaxpu=1.2 model=1 kW=151.562 kvar=30.775976723010963 Phases=3

New Load.load_p1ulv1825 conn=wye bus1=p1ulv1825.1.2.3 kV=0.48 Vminpu=0.8 Vmaxpu=1.2 model=1 kW=38.57039999999999 kvar=12.677477410390823 Phases=3

New Load.load_p1ulv1826 conn=wye bus1=p1ulv1826.1.2.3 kV=0.48 Vminpu=0.8 Vmaxpu=1.2 model=1 kW=24.0402 kvar=7.901631625320905 Phases=3

New Load.load_p1ulv1827 conn=wye bus1=p1ulv1827.1.2 kV=0.2080002494301389 Vminpu=0.8 Vmaxpu=1.2 model=1 kW=8.39008 kvar=2.7606620601788765 Phases=2

New Load.load_p1ulv1830 conn=wye bus1=p1ulv1830.1.2 kV=0.2080002494301389 Vminpu=0.8 Vmaxpu=1.2 model=1 kW=4.57005 kvar=0.9303767534230621 Phases=2

New Load.load_p1ulv1831 conn=wye bus1=p1ulv1831.1.2.3 kV=0.48 Vminpu=0.8 Vmaxpu=1.2 model=1 kW=33.3403 kvar=6.770036663135893 Phases=3

New Load.load_p1ulv1832 conn=wye bus1=p1ulv1832.1.2.3 kV=0.48 Vminpu=0.8 Vmaxpu=1.2 model=1 kW=118.70100000000001 kvar=24.10326607591694 Phases=3

New Load.load_p1ulv1833 conn=wye bus1=p1ulv1833.1.2.3 kV=0.48 Vminpu=0.8 Vmaxpu=1.2 model=1 kW=22.510199999999998 kvar=4.570891062603563 Phases=3

New Load.load_p1ulv1834 conn=wye bus1=p1ulv1834.1.2.3 kV=0.48 Vminpu=0.8 Vmaxpu=1.2 model=1 kW=61.7206 kvar=12.532902369527125 Phases=3

New Load.load_p1ulv1835 conn=wye bus1=p1ulv1835.1.2 kV=0.2080002494301389 Vminpu=0.8 Vmaxpu=1.2 model=1 kW=12.0401 kvar=0.9195182361353397 Phases=2

New Load.load_p1ulv1836 conn=wye bus1=p1ulv1836.1.2 kV=0.2080002494301389 Vminpu=0.8 Vmaxpu=1.2 model=1 kW=11.51 kvar=0.810067352976347 Phases=2

New Load.load_p1ulv1837 conn=wye bus1=p1ulv1837.1.2 kV=0.2080002494301389 Vminpu=0.8 Vmaxpu=1.2 model=1 kW=5.04005 kvar=1.0207856490641993 Phases=2

New Load.load_p1ulv1838 conn=wye bus1=p1ulv1838.1.2 kV=0.2080002494301389 Vminpu=0.8 Vmaxpu=1.2 model=1 kW=14.2501 kvar=1.3706601733857733 Phases=2

New Load.load_p1ulv1839 conn=wye bus1=p1ulv1839.1.2 kV=0.2080002494301389 Vminpu=0.8 Vmaxpu=1.2 model=1 kW=10.69 kvar=0.6494304777239135 Phases=2

New Load.load_p1ulv1840 conn=wye bus1=p1ulv1840.1.2 kV=0.2080002494301389 Vminpu=0.8 Vmaxpu=1.2 model=1 kW=11.49 kvar=0.8102121782761024 Phases=2

New Load.load_p1ulv1841 conn=wye bus1=p1ulv1841.1.2 kV=0.2080002494301389 Vminpu=0.8 Vmaxpu=1.2 model=1 kW=11.02 kvar=0.7092301716051945 Phases=2

New Load.load_p1ulv1842 conn=wye bus1=p1ulv1842.1.2.3 kV=0.48 Vminpu=0.8 Vmaxpu=1.2 model=1 kW=99.31100000000002 kvar=20.165958646223604 Phases=3

New Load.load_p1ulv1843 conn=wye bus1=p1ulv1843.1.2 kV=0.2080002494301389 Vminpu=0.8 Vmaxpu=1.2 model=1 kW=9.77 kvar=0.4597581053935405 Phases=2

New Load.load_p1ulv1844 conn=wye bus1=p1ulv1844.1.2 kV=0.2080002494301389 Vminpu=0.8 Vmaxpu=1.2 model=1 kW=3.53004 kvar=0.7204909600226704 Phases=2

New Load.load_p1ulv1845 conn=wye bus1=p1ulv1845.1.2 kV=0.2080002494301389 Vminpu=0.8 Vmaxpu=1.2 model=1 kW=10.13 kvar=0.5299077931576943 Phases=2

New Load.load_p1ulv1846 conn=wye bus1=p1ulv1846.1.2 kV=0.2080002494301389 Vminpu=0.8 Vmaxpu=1.2 model=1 kW=9.41 kvar=0.3898403823929759 Phases=2

New Load.load_p1ulv1847 conn=wye bus1=p1ulv1847.1.2 kV=0.2080002494301389 Vminpu=0.8 Vmaxpu=1.2 model=1 kW=11.2 kvar=0.7493869570665965 Phases=2

New Load.load_p1ulv1848 conn=wye bus1=p1ulv1848.1.2 kV=0.2080002494301389 Vminpu=0.8 Vmaxpu=1.2 model=1 kW=10.38 kvar=0.5893205887930111 Phases=2

New Load.load_p1ulv1849 conn=wye bus1=p1ulv1849.1.2 kV=0.2080002494301389 Vminpu=0.8 Vmaxpu=1.2 model=1 kW=10.67 kvar=0.6403771062023346 Phases=2

New Load.load_p1ulv1850 conn=wye bus1=p1ulv1850.1.2 kV=0.2080002494301389 Vminpu=0.8 Vmaxpu=1.2 model=1 kW=6.71007 kvar=1.3590228589431081 Phases=2

New Load.load_p1ulv1852 conn=wye bus1=p1ulv1852.1.2 kV=0.2080002494301389 Vminpu=0.8 Vmaxpu=1.2 model=1 kW=3.65004 kvar=0.7392602157737106 Phases=2

New Load.load_p1ulv1853 conn=wye bus1=p1ulv1853.1.2 kV=0.2080002494301389 Vminpu=0.8 Vmaxpu=1.2 model=1 kW=11.31 kvar=0.769665394243948 Phases=2

New Load.load_p1ulv1855 conn=wye bus1=p1ulv1855.1.2 kV=0.2080002494301389 Vminpu=0.8 Vmaxpu=1.2 model=1 kW=10.63 kvar=0.6404763570309296 Phases=2

New Load.load_p1ulv1857 conn=wye bus1=p1ulv1857.1.2 kV=0.2080002494301389 Vminpu=0.8 Vmaxpu=1.2 model=1 kW=11.21 kvar=0.7494644148777485 Phases=2

New Load.load_p1ulv1858 conn=wye bus1=p1ulv1858.1.2 kV=0.2080002494301389 Vminpu=0.8 Vmaxpu=1.2 model=1 kW=5.54006 kvar=1.8209296637372128 Phases=2

New Load.load_p1ulv1859 conn=wye bus1=p1ulv1859.1.2 kV=0.2080002494301389 Vminpu=0.8 Vmaxpu=1.2 model=1 kW=5.50006 kvar=1.8097332767634438 Phases=2

New Load.load_p1ulv1860 conn=wye bus1=p1ulv1860.1.2 kV=0.2080002494301389 Vminpu=0.8 Vmaxpu=1.2 model=1 kW=4.94005 kvar=1.6307172488526098 Phases=2

New Load.load_p1ulv1861 conn=wye bus1=p1ulv1861.1.2 kV=0.2080002494301389 Vminpu=0.8 Vmaxpu=1.2 model=1 kW=4.590050000000001 kvar=1.5103046561324864 Phases=2

New Load.load_p1ulv1862 conn=wye bus1=p1ulv1862.1.2 kV=0.2080002494301389 Vminpu=0.8 Vmaxpu=1.2 model=1 kW=17.0302 kvar=3.45812960232922 Phases=2

New Load.load_p1ulv1863 conn=wye bus1=p1ulv1863.1.2 kV=0.2080002494301389 Vminpu=0.8 Vmaxpu=1.2 model=1 kW=13.2701 kvar=1.1686380972885935 Phases=2

New Load.load_p1ulv1864 conn=wye bus1=p1ulv1864.1.2 kV=0.2080002494301389 Vminpu=0.8 Vmaxpu=1.2 model=1 kW=11.47 kvar=0.8102961810428216 Phases=2

New Load.load_p1ulv1865 conn=wye bus1=p1ulv1865.1.2 kV=0.2080002494301389 Vminpu=0.8 Vmaxpu=1.2 model=1 kW=12.18 kvar=0.9503246847001716 Phases=2

New Load.load_p1ulv1866 conn=wye bus1=p1ulv1866.1.2 kV=0.2080002494301389 Vminpu=0.8 Vmaxpu=1.2 model=1 kW=10.96 kvar=0.7007765735124853 Phases=2

New Load.load_p1ulv1867 conn=wye bus1=p1ulv1867.1.2 kV=0.2080002494301389 Vminpu=0.8 Vmaxpu=1.2 model=1 kW=10.56 kvar=0.6197626431693976 Phases=2

New Load.load_p1ulv1868 conn=wye bus1=p1ulv1868.1.2.3 kV=0.48 Vminpu=0.8 Vmaxpu=1.2 model=1 kW=47.3305 kvar=9.61086793713774 Phases=3

New Load.load_p1ulv1869 conn=wye bus1=p1ulv1869.1.2 kV=0.2080002494301389 Vminpu=0.8 Vmaxpu=1.2 model=1 kW=7.77008 kvar=2.5511434888321016 Phases=2

New Load.load_p1ulv1870 conn=wye bus1=p1ulv1870.1.2 kV=0.2080002494301389 Vminpu=0.8 Vmaxpu=1.2 model=1 kW=10.78 kvar=0.6694632252334703 Phases=2

New Load.load_p1ulv1871 conn=wye bus1=p1ulv1871.1.2 kV=0.2080002494301389 Vminpu=0.8 Vmaxpu=1.2 model=1 kW=10.99 kvar=0.7105048699136965 Phases=2

New Load.load_p1ulv1872 conn=wye bus1=p1ulv1872.1.2 kV=0.2080002494301389 Vminpu=0.8 Vmaxpu=1.2 model=1 kW=10.62 kvar=0.6302766165192346 Phases=2

New Load.load_p1ulv1873 conn=wye bus1=p1ulv1873.1.2 kV=0.2080002494301389 Vminpu=0.8 Vmaxpu=1.2 model=1 kW=11.72 kvar=0.8591212600552419 Phases=2

New Load.load_p1umv3 conn=wye bus1=p1umv3.1.2.3 kV=12.47 Vminpu=0.8 Vmaxpu=1.2 model=1 kW=3166.51 kvar=1040.7815058899218 Phases=3

New Load.load_p1ulv1876 conn=wye bus1=p1ulv1876.1.2.3 kV=0.48 Vminpu=0.8 Vmaxpu=1.2 model=1 kW=19.4402 kvar=6.389684741498137 Phases=3

New Load.load_p1ulv1877 conn=wye bus1=p1ulv1877.1.2 kV=0.2080002494301389 Vminpu=0.8 Vmaxpu=1.2 model=1 kW=3.22003 kvar=0.6504775958854341 Phases=2

New Load.load_p1ulv1878 conn=wye bus1=p1ulv1878.1.2 kV=0.2080002494301389 Vminpu=0.8 Vmaxpu=1.2 model=1 kW=10.77 kvar=0.660578085568534 Phases=2

New Load.load_p1ulv1879 conn=wye bus1=p1ulv1879.1.2 kV=0.2080002494301389 Vminpu=0.8 Vmaxpu=1.2 model=1 kW=10.57 kvar=0.620176126836135 Phases=2

New Load.load_p1ulv1880 conn=wye bus1=p1ulv1880.1.2 kV=0.2080002494301389 Vminpu=0.8 Vmaxpu=1.2 model=1 kW=11.44 kvar=0.8000592452444024 Phases=2

New Load.load_p1ulv1881 conn=wye bus1=p1ulv1881.1.2 kV=0.2080002494301389 Vminpu=0.8 Vmaxpu=1.2 model=1 kW=11.13 kvar=0.7409012375272501 Phases=2

New Load.load_p1ulv1882 conn=wye bus1=p1ulv1882.1.2 kV=0.2080002494301389 Vminpu=0.8 Vmaxpu=1.2 model=1 kW=10.61 kvar=0.6298893844622836 Phases=2

New Load.load_p1ulv1883 conn=wye bus1=p1ulv1883.1.2 kV=0.2080002494301389 Vminpu=0.8 Vmaxpu=1.2 model=1 kW=11.25 kvar=0.7595136983594827 Phases=2

New Load.load_p1ulv1884 conn=wye bus1=p1ulv1884.1.2 kV=0.2080002494301389 Vminpu=0.8 Vmaxpu=1.2 model=1 kW=10.92 kvar=0.6908795546178332 Phases=2

New Load.load_p1ulv1885 conn=wye bus1=p1ulv1885.1.2 kV=0.2080002494301389 Vminpu=0.8 Vmaxpu=1.2 model=1 kW=10.59 kvar=0.6306836979747686 Phases=2

New Load.load_p1ulv1886 conn=wye bus1=p1ulv1886.1.2 kV=0.2080002494301389 Vminpu=0.8 Vmaxpu=1.2 model=1 kW=10.22 kvar=0.5494726990544365 Phases=2

New Load.load_p1ulv1887 conn=wye bus1=p1ulv1887.1.2 kV=0.2080002494301389 Vminpu=0.8 Vmaxpu=1.2 model=1 kW=9.13 kvar=0.3301358168446 Phases=2

New Load.load_p1ulv1888 conn=wye bus1=p1ulv1888.1.2 kV=0.2080002494301389 Vminpu=0.8 Vmaxpu=1.2 model=1 kW=13.2901 kvar=1.1787479841412536 Phases=2

New Load.load_p1ulv1889 conn=wye bus1=p1ulv1889.1.2 kV=0.2080002494301389 Vminpu=0.8 Vmaxpu=1.2 model=1 kW=11.32 kvar=0.7796807647859518 Phases=2

New Load.load_p1ulv1890 conn=wye bus1=p1ulv1890.1.2 kV=0.2080002494301389 Vminpu=0.8 Vmaxpu=1.2 model=1 kW=9.48 kvar=0.39998343164662364 Phases=2

New Load.load_p1ulv1891 conn=wye bus1=p1ulv1891.1.2 kV=0.2080002494301389 Vminpu=0.8 Vmaxpu=1.2 model=1 kW=20.3101 kvar=1.0810269208245273 Phases=2

New Load.load_p1ulv1892 conn=wye bus1=p1ulv1892.1.2 kV=0.2080002494301389 Vminpu=0.8 Vmaxpu=1.2 model=1 kW=11.62 kvar=0.8409115972996914 Phases=2

New Load.load_p1ulv1893 conn=wye bus1=p1ulv1893.1.2 kV=0.2080002494301389 Vminpu=0.8 Vmaxpu=1.2 model=1 kW=10.95 kvar=0.7005584709471337 Phases=2

New Load.load_p1ulv3005 conn=wye bus1=p1ulv3005.1.2 kV=0.2080002494301389 Vminpu=0.8 Vmaxpu=1.2 model=1 kW=10.33 kvar=0.580558608517704 Phases=2

New Load.load_p1ulv3013 conn=wye bus1=p1ulv3013.1.2 kV=0.2080002494301389 Vminpu=0.8 Vmaxpu=1.2 model=1 kW=10.24 kvar=0.5606733585797765 Phases=2

New Load.load_p1ulv3014 conn=wye bus1=p1ulv3014.1.2 kV=0.2080002494301389 Vminpu=0.8 Vmaxpu=1.2 model=1 kW=14.2201 kvar=1.3610482072016854 Phases=2

New Load.load_p1ulv3015 conn=wye bus1=p1ulv3015.1.2 kV=0.2080002494301389 Vminpu=0.8 Vmaxpu=1.2 model=1 kW=11 kvar=0.7107134345654403 Phases=2

New Load.load_p1ulv3018 conn=wye bus1=p1ulv3018.1.2 kV=0.2080002494301389 Vminpu=0.8 Vmaxpu=1.2 model=1 kW=16.5501 kvar=1.837699154017196 Phases=2

New Load.load_p1ulv3020 conn=wye bus1=p1ulv3020.1.2 kV=0.2080002494301389 Vminpu=0.8 Vmaxpu=1.2 model=1 kW=20.8801 kvar=1.1909169281329426 Phases=2

New Load.load_p1ulv3022 conn=wye bus1=p1ulv3022.1.2 kV=0.2080002494301389 Vminpu=0.8 Vmaxpu=1.2 model=1 kW=2.06002 kvar=0.4204557986498457 Phases=2

New Load.load_p1ulv3025 conn=wye bus1=p1ulv3025.1.2 kV=0.2080002494301389 Vminpu=0.8 Vmaxpu=1.2 model=1 kW=13.2401 kvar=1.1685689187762893 Phases=2

New Load.load_p1ulv3026 conn=wye bus1=p1ulv3026.1.2 kV=0.2080002494301389 Vminpu=0.8 Vmaxpu=1.2 model=1 kW=12.3401 kvar=0.9802786838926555 Phases=2

New Load.load_p1ulv3027 conn=wye bus1=p1ulv3027.1.2 kV=0.2080002494301389 Vminpu=0.8 Vmaxpu=1.2 model=1 kW=8.88 kvar=0.28022298226153225 Phases=2

New Load.load_p1ulv3028 conn=wye bus1=p1ulv3028.1.2 kV=0.2080002494301389 Vminpu=0.8 Vmaxpu=1.2 model=1 kW=13.2801 kvar=1.1706634455471703 Phases=2

New Load.load_p1ulv3029 conn=wye bus1=p1ulv3029.1.2 kV=0.2080002494301389 Vminpu=0.8 Vmaxpu=1.2 model=1 kW=13.0201 kvar=1.1208959902193418 Phases=2

New Load.load_p1ulv3030 conn=wye bus1=p1ulv3030.1.2 kV=0.2080002494301389 Vminpu=0.8 Vmaxpu=1.2 model=1 kW=10.78 kvar=0.6694632252334703 Phases=2

New Load.load_p1ulv3031 conn=wye bus1=p1ulv3031.1.2 kV=0.2080002494301389 Vminpu=0.8 Vmaxpu=1.2 model=1 kW=5.10005 kvar=1.0409343578723245 Phases=2

New Load.load_p1ulv3032 conn=wye bus1=p1ulv3032.1.2 kV=0.2080002494301389 Vminpu=0.8 Vmaxpu=1.2 model=1 kW=10.97 kvar=0.6991539790386396 Phases=2

New Load.load_p1ulv3033 conn=wye bus1=p1ulv3033.1.2 kV=0.2080002494301389 Vminpu=0.8 Vmaxpu=1.2 model=1 kW=11.68 kvar=0.8509780077632708 Phases=2

New Load.load_p1ulv3035 conn=wye bus1=p1ulv3035.1.2 kV=0.2080002494301389 Vminpu=0.8 Vmaxpu=1.2 model=1 kW=11.69 kvar=0.8508239104029033 Phases=2

New Load.load_p1ulv3036 conn=wye bus1=p1ulv3036.1.2 kV=0.2080002494301389 Vminpu=0.8 Vmaxpu=1.2 model=1 kW=13.0701 kvar=1.131048923251042 Phases=2

New Load.load_p1ulv3038 conn=wye bus1=p1ulv3038.1.2 kV=0.2080002494301389 Vminpu=0.8 Vmaxpu=1.2 model=1 kW=10.91 kvar=0.6906498322195993 Phases=2

New Load.load_p1ulv3039 conn=wye bus1=p1ulv3039.1.2 kV=0.2080002494301389 Vminpu=0.8 Vmaxpu=1.2 model=1 kW=1.38001 kvar=0.28022298226153225 Phases=2

New Load.load_p1ulv4862 conn=wye bus1=p1ulv4862.1.2 kV=0.2080002494301389 Vminpu=0.8 Vmaxpu=1.2 model=1 kW=9.7 kvar=0.45017485295514287 Phases=2

New Load.load_p1ulv4864 conn=wye bus1=p1ulv4864.1.2 kV=0.2080002494301389 Vminpu=0.8 Vmaxpu=1.2 model=1 kW=11.39 kvar=0.789906312212702 Phases=2

New Load.load_p1ulv4879 conn=wye bus1=p1ulv4879.1.2 kV=0.2080002494301389 Vminpu=0.8 Vmaxpu=1.2 model=1 kW=2.72003 kvar=0.5494726990544365 Phases=2

New Load.load_p1ulv4882 conn=wye bus1=p1ulv4882.1.2 kV=0.2080002494301389 Vminpu=0.8 Vmaxpu=1.2 model=1 kW=12.87 kvar=1.0904351605376348 Phases=2

New Load.load_p1ulv6283 conn=wye bus1=p1ulv6283.1.2 kV=0.2080002494301389 Vminpu=0.8 Vmaxpu=1.2 model=1 kW=13.1001 kvar=1.1400675357543906 Phases=2

New Load.load_p1ulv6284 conn=wye bus1=p1ulv6284.1.2 kV=0.2080002494301389 Vminpu=0.8 Vmaxpu=1.2 model=1 kW=13.4401 kvar=1.2092851802361448 Phases=2

New Load.load_p1ulv6285 conn=wye bus1=p1ulv6285.1.2 kV=0.2080002494301389 Vminpu=0.8 Vmaxpu=1.2 model=1 kW=12.1101 kvar=0.9409239980998833 Phases=2

New Load.load_p1ulv6286 conn=wye bus1=p1ulv6286.1.2 kV=0.2080002494301389 Vminpu=0.8 Vmaxpu=1.2 model=1 kW=13.3901 kvar=1.199106114871181 Phases=2

New Load.load_p1ulv6287 conn=wye bus1=p1ulv6287.1.2 kV=0.2080002494301389 Vminpu=0.8 Vmaxpu=1.2 model=1 kW=5.06005 kvar=1.030131593999708 Phases=2

New Load.load_p1ulv6288 conn=wye bus1=p1ulv6288.1.2 kV=0.2080002494301389 Vminpu=0.8 Vmaxpu=1.2 model=1 kW=14.6801 kvar=1.4617280371003216 Phases=2

New Load.load_p1ulv6289 conn=wye bus1=p1ulv6289.1.2 kV=0.2080002494301389 Vminpu=0.8 Vmaxpu=1.2 model=1 kW=9.2 kvar=0.3496264446952789 Phases=2

New Load.load_p1ulv6290 conn=wye bus1=p1ulv6290.1.2 kV=0.2080002494301389 Vminpu=0.8 Vmaxpu=1.2 model=1 kW=11.6501 kvar=2.3717425881673098 Phases=2

New Load.load_p1ulv6291 conn=wye bus1=p1ulv6291.1.2 kV=0.2080002494301389 Vminpu=0.8 Vmaxpu=1.2 model=1 kW=13.5601 kvar=2.7534957440631618 Phases=2

New Load.load_p1ulv6292 conn=wye bus1=p1ulv6292.1.2 kV=0.2080002494301389 Vminpu=0.8 Vmaxpu=1.2 model=1 kW=6.28006 kvar=1.2785028247178991 Phases=2

New Load.load_p1ulv6296 conn=wye bus1=p1ulv6296.1.2 kV=0.2080002494301389 Vminpu=0.8 Vmaxpu=1.2 model=1 kW=10.71 kvar=0.6501428670480555 Phases=2

New Load.load_p1ulv6297 conn=wye bus1=p1ulv6297.1.2 kV=0.2080002494301389 Vminpu=0.8 Vmaxpu=1.2 model=1 kW=10.98 kvar=0.71028378024263 Phases=2

New Load.load_p1ulv6298 conn=wye bus1=p1ulv6298.1.2 kV=0.2080002494301389 Vminpu=0.8 Vmaxpu=1.2 model=1 kW=18.7 kvar=0.7493869570665965 Phases=2

New Load.load_p1ulv6299 conn=wye bus1=p1ulv6299.1.2.3 kV=0.48 Vminpu=0.8 Vmaxpu=1.2 model=1 kW=45.0005 kvar=9.13774125786051 Phases=3

New Load.load_p1ulv6300 conn=wye bus1=p1ulv6300.1.2.3 kV=0.48 Vminpu=0.8 Vmaxpu=1.2 model=1 kW=44.270399999999995 kvar=8.989488129731622 Phases=3

New Load.load_p1ulv6301 conn=wye bus1=p1ulv6301.1.2.3 kV=0.48 Vminpu=0.8 Vmaxpu=1.2 model=1 kW=74.49070000000002 kvar=15.125981771689425 Phases=3

New Load.load_p1ulv6302 conn=wye bus1=p1ulv6302.1.2.3 kV=0.48 Vminpu=0.8 Vmaxpu=1.2 model=1 kW=119.79099999999998 kvar=24.324600016008006 Phases=3

New Load.load_p1ulv6303 conn=wye bus1=p1ulv6303.1.2.3 kV=0.48 Vminpu=0.8 Vmaxpu=1.2 model=1 kW=45.2105 kvar=9.180383576593652 Phases=3

New Load.load_p1ulv6304 conn=wye bus1=p1ulv6304.1.2.3 kV=0.48 Vminpu=0.8 Vmaxpu=1.2 model=1 kW=29.850300000000004 kvar=6.061361937523219 Phases=3

New Load.load_p1ulv6305 conn=wye bus1=p1ulv6305.1.2 kV=0.2080002494301389 Vminpu=0.8 Vmaxpu=1.2 model=1 kW=11.81 kvar=0.8706702910749454 Phases=2

New Load.load_p1ulv6306 conn=wye bus1=p1ulv6306.1.2 kV=0.2080002494301389 Vminpu=0.8 Vmaxpu=1.2 model=1 kW=16.0001 kvar=1.7304594343615136 Phases=2

New Load.load_p1ulv6307 conn=wye bus1=p1ulv6307.1.2 kV=0.2080002494301389 Vminpu=0.8 Vmaxpu=1.2 model=1 kW=11.71 kvar=0.850469311708746 Phases=2

New Load.load_p1ulv6308 conn=wye bus1=p1ulv6308.1.2 kV=0.2080002494301389 Vminpu=0.8 Vmaxpu=1.2 model=1 kW=12.68 kvar=1.0491405246842802 Phases=2

New Load.load_p1ulv6309 conn=wye bus1=p1ulv6309.1.2 kV=0.2080002494301389 Vminpu=0.8 Vmaxpu=1.2 model=1 kW=12.25 kvar=0.95955662038416 Phases=2

New Load.load_p1ulv6310 conn=wye bus1=p1ulv6310.1.2 kV=0.2080002494301389 Vminpu=0.8 Vmaxpu=1.2 model=1 kW=11.48 kvar=0.8102617463034154 Phases=2

New Load.load_p1ulv6311 conn=wye bus1=p1ulv6311.1.2 kV=0.2080002494301389 Vminpu=0.8 Vmaxpu=1.2 model=1 kW=14.4101 kvar=1.399529824114652 Phases=2

New Load.load_p1ulv6312 conn=wye bus1=p1ulv6312.1.2 kV=0.2080002494301389 Vminpu=0.8 Vmaxpu=1.2 model=1 kW=11.25 kvar=0.7595136983594827 Phases=2

New Load.load_p1ulv6313 conn=wye bus1=p1ulv6313.1.2 kV=0.2080002494301389 Vminpu=0.8 Vmaxpu=1.2 model=1 kW=12.9501 kvar=1.109528303846426 Phases=2

New Load.load_p1ulv6314 conn=wye bus1=p1ulv6314.1.2 kV=0.2080002494301389 Vminpu=0.8 Vmaxpu=1.2 model=1 kW=14.0801 kvar=1.3395792527207553 Phases=2

New Load.load_p1ulv6315 conn=wye bus1=p1ulv6315.1.2 kV=0.2080002494301389 Vminpu=0.8 Vmaxpu=1.2 model=1 kW=17.81 kvar=0.570600928141371 Phases=2

New Load.load_p1ulv6316 conn=wye bus1=p1ulv6316.1.2 kV=0.2080002494301389 Vminpu=0.8 Vmaxpu=1.2 model=1 kW=10.2 kvar=0.5496756371472675 Phases=2

New Load.load_p1ulv6317 conn=wye bus1=p1ulv6317.1.2 kV=0.2080002494301389 Vminpu=0.8 Vmaxpu=1.2 model=1 kW=2.94003 kvar=0.6000682817178988 Phases=2

New Load.load_p1ulv6318 conn=wye bus1=p1ulv6318.1.2 kV=0.2080002494301389 Vminpu=0.8 Vmaxpu=1.2 model=1 kW=10.43 kvar=0.5995517424405946 Phases=2

New Load.load_p1ulv6319 conn=wye bus1=p1ulv6318.1.2 kV=0.2080002494301389 Vminpu=0.8 Vmaxpu=1.2 model=1 kW=10.47 kvar=0.5999751474699353 Phases=2

New Load.load_p1ulv6320 conn=wye bus1=p1ulv6320.1.2 kV=0.2080002494301389 Vminpu=0.8 Vmaxpu=1.2 model=1 kW=10.6 kvar=0.6294879397252322 Phases=2

New Load.load_p1ulv6321 conn=wye bus1=p1ulv6321.1.2 kV=0.2080002494301389 Vminpu=0.8 Vmaxpu=1.2 model=1 kW=9.69 kvar=0.450399940242794 Phases=2

New Load.load_p1ulv6322 conn=wye bus1=p1ulv6322.1.2 kV=0.2080002494301389 Vminpu=0.8 Vmaxpu=1.2 model=1 kW=17.57 kvar=0.520520578499115 Phases=2

New Load.load_p1ulv6323 conn=wye bus1=p1ulv6323.1.2 kV=0.2080002494301389 Vminpu=0.8 Vmaxpu=1.2 model=1 kW=2.85003 kvar=0.5802128332421591 Phases=2

New Load.load_p1ulv6324 conn=wye bus1=p1ulv6324.1.2 kV=0.2080002494301389 Vminpu=0.8 Vmaxpu=1.2 model=1 kW=17.96 kvar=0.5995091605836256 Phases=2

New Load.load_p1ulv6325 conn=wye bus1=p1ulv6325.1.2 kV=0.2080002494301389 Vminpu=0.8 Vmaxpu=1.2 model=1 kW=2.64003 kvar=0.5402110512846091 Phases=2

New Load.load_p1ulv6326 conn=wye bus1=p1ulv6326.1.2 kV=0.2080002494301389 Vminpu=0.8 Vmaxpu=1.2 model=1 kW=3.40003 kvar=0.6904055379154336 Phases=2

New Load.load_p1ulv6327 conn=wye bus1=p1ulv6327.1.2 kV=0.2080002494301389 Vminpu=0.8 Vmaxpu=1.2 model=1 kW=9.13 kvar=0.3301358168446 Phases=2

New Load.load_p1ulv6328 conn=wye bus1=p1ulv6327.1.2 kV=0.2080002494301389 Vminpu=0.8 Vmaxpu=1.2 model=1 kW=9.76 kvar=0.4600978261225126 Phases=2

New Load.load_p1ulv6329 conn=wye bus1=p1ulv6329.1.2 kV=0.2080002494301389 Vminpu=0.8 Vmaxpu=1.2 model=1 kW=16.8 kvar=0.3701924641947718 Phases=2

New Load.load_p1ulv6330 conn=wye bus1=p1ulv6329.1.2 kV=0.2080002494301389 Vminpu=0.8 Vmaxpu=1.2 model=1 kW=17.02 kvar=0.4101825556539014 Phases=2

New Load.load_p1ulv6331 conn=wye bus1=p1ulv6331.1.2 kV=0.2080002494301389 Vminpu=0.8 Vmaxpu=1.2 model=1 kW=17.34 kvar=0.48003687420401825 Phases=2

New Load.load_p1ulv6332 conn=wye bus1=p1ulv6331.1.2 kV=0.2080002494301389 Vminpu=0.8 Vmaxpu=1.2 model=1 kW=17.02 kvar=0.4101825556539014 Phases=2

New Load.load_p1ulv6333 conn=wye bus1=p1ulv6333.1.2 kV=0.2080002494301389 Vminpu=0.8 Vmaxpu=1.2 model=1 kW=17.1 kvar=0.4297125456599755 Phases=2

New Load.load_p1ulv6334 conn=wye bus1=p1ulv6334.1.2 kV=0.2080002494301389 Vminpu=0.8 Vmaxpu=1.2 model=1 kW=9.58 kvar=0.4201844110128231 Phases=2

New Load.load_p1ulv6335 conn=wye bus1=p1ulv6334.1.2 kV=0.2080002494301389 Vminpu=0.8 Vmaxpu=1.2 model=1 kW=9.61 kvar=0.42956063002762096 Phases=2

New Load.load_p1ulv6336 conn=wye bus1=p1ulv6336.1.2 kV=0.2080002494301389 Vminpu=0.8 Vmaxpu=1.2 model=1 kW=10.07 kvar=0.520520578499115 Phases=2

New Load.load_p1ulv6337 conn=wye bus1=p1ulv6336.1.2 kV=0.2080002494301389 Vminpu=0.8 Vmaxpu=1.2 model=1 kW=9.97 kvar=0.5002650705650844 Phases=2

New Load.load_p1ulv6338 conn=wye bus1=p1ulv6338.1.2 kV=0.2080002494301389 Vminpu=0.8 Vmaxpu=1.2 model=1 kW=25.3 kvar=0.5700337678771953 Phases=2

New Load.load_p1ulv6339 conn=wye bus1=p1ulv6339.1.2 kV=0.2080002494301389 Vminpu=0.8 Vmaxpu=1.2 model=1 kW=9.49 kvar=0.4102964266439281 Phases=2

New Load.load_p1ulv6340 conn=wye bus1=p1ulv6340.1.2 kV=0.2080002494301389 Vminpu=0.8 Vmaxpu=1.2 model=1 kW=17.2 kvar=0.45017485295514287 Phases=2

New Load.load_p1ulv6341 conn=wye bus1=p1ulv6340.1.2 kV=0.2080002494301389 Vminpu=0.8 Vmaxpu=1.2 model=1 kW=17.27 kvar=0.4597581053935405 Phases=2

New Load.load_p1ulv6342 conn=wye bus1=p1ulv6342.1.2 kV=0.2080002494301389 Vminpu=0.8 Vmaxpu=1.2 model=1 kW=17.63 kvar=0.5299077931576943 Phases=2

New Load.load_p1ulv6343 conn=wye bus1=p1ulv6342.1.2 kV=0.2080002494301389 Vminpu=0.8 Vmaxpu=1.2 model=1 kW=17.31 kvar=0.4702768914874764 Phases=2

New Load.load_p1ulv6344 conn=wye bus1=p1ulv6344.1.2 kV=0.2080002494301389 Vminpu=0.8 Vmaxpu=1.2 model=1 kW=10.4 kvar=0.5903918986071232 Phases=2

New Load.load_p1ulv6345 conn=wye bus1=p1ulv6345.1.2 kV=0.2080002494301389 Vminpu=0.8 Vmaxpu=1.2 model=1 kW=17.86 kvar=0.5807538611730713 Phases=2

New Load.load_p1ulv6346 conn=wye bus1=p1ulv6344.1.2 kV=0.2080002494301389 Vminpu=0.8 Vmaxpu=1.2 model=1 kW=10.02 kvar=0.510393837206229 Phases=2

New Load.load_p1ulv6347 conn=wye bus1=p1ulv6347.1.2 kV=0.2080002494301389 Vminpu=0.8 Vmaxpu=1.2 model=1 kW=10.06 kvar=0.5198362629828699 Phases=2

New Load.load_p1ulv6348 conn=wye bus1=p1ulv6348.1.2 kV=0.2080002494301389 Vminpu=0.8 Vmaxpu=1.2 model=1 kW=17.81 kvar=0.570600928141371 Phases=2

New Load.load_p1ulv6349 conn=wye bus1=p1ulv6348.1.2 kV=0.2080002494301389 Vminpu=0.8 Vmaxpu=1.2 model=1 kW=17.7 kvar=0.5496756371472675 Phases=2

New Load.load_p1ulv6350 conn=wye bus1=p1ulv6350.1.2 kV=0.2080002494301389 Vminpu=0.8 Vmaxpu=1.2 model=1 kW=10.25 kvar=0.5598547025122315 Phases=2

New Load.load_p1ulv6351 conn=wye bus1=p1ulv6351.1.2 kV=0.2080002494301389 Vminpu=0.8 Vmaxpu=1.2 model=1 kW=10.3 kvar=0.5700337678771953 Phases=2

New Load.load_p1ulv6352 conn=wye bus1=p1ulv6352.1.2 kV=0.2080002494301389 Vminpu=0.8 Vmaxpu=1.2 model=1 kW=10.29 kvar=0.569452865461029 Phases=2

New Load.load_p1ulv6353 conn=wye bus1=p1ulv6352.1.2 kV=0.2080002494301389 Vminpu=0.8 Vmaxpu=1.2 model=1 kW=10.26 kvar=0.5604479951096709 Phases=2

New Load.load_p1ulv6354 conn=wye bus1=p1ulv6354.1.2 kV=0.2080002494301389 Vminpu=0.8 Vmaxpu=1.2 model=1 kW=10.47 kvar=0.5999751474699353 Phases=2

New Load.load_p1ulv6355 conn=wye bus1=p1ulv6354.1.2 kV=0.2080002494301389 Vminpu=0.8 Vmaxpu=1.2 model=1 kW=10.35 kvar=0.5802128332421591 Phases=2

New Load.load_p1ulv6356 conn=wye bus1=p1ulv6356.1.2 kV=0.2080002494301389 Vminpu=0.8 Vmaxpu=1.2 model=1 kW=17.35 kvar=0.47964560341312734 Phases=2

New Load.load_p1ulv6357 conn=wye bus1=p1ulv6357.1.2 kV=0.2080002494301389 Vminpu=0.8 Vmaxpu=1.2 model=1 kW=17.83 kvar=0.5702045040817287 Phases=2

New Load.load_p1ulv6358 conn=wye bus1=p1ulv6358.1.2 kV=0.2080002494301389 Vminpu=0.8 Vmaxpu=1.2 model=1 kW=2.81003 kvar=0.570600928141371 Phases=2

New Load.load_p1ulv6359 conn=wye bus1=p1ulv6359.1.2 kV=0.2080002494301389 Vminpu=0.8 Vmaxpu=1.2 model=1 kW=17.83 kvar=0.5702045040817287 Phases=2

New Load.load_p1ulv6360 conn=wye bus1=p1ulv6359.1.2 kV=0.2080002494301389 Vminpu=0.8 Vmaxpu=1.2 model=1 kW=17.99 kvar=0.6102734204701886 Phases=2

New Load.load_p1ulv6361 conn=wye bus1=p1ulv6361.1.2 kV=0.2080002494301389 Vminpu=0.8 Vmaxpu=1.2 model=1 kW=9.87 kvar=0.4800115879793125 Phases=2

New Load.load_p1ulv6362 conn=wye bus1=p1ulv6362.1.2 kV=0.2080002494301389 Vminpu=0.8 Vmaxpu=1.2 model=1 kW=17.68 kvar=0.5399819708887028 Phases=2

New Load.load_p1ulv6363 conn=wye bus1=p1ulv6362.1.2 kV=0.2080002494301389 Vminpu=0.8 Vmaxpu=1.2 model=1 kW=17.31 kvar=0.4702768914874764 Phases=2

New Load.load_p1ulv6364 conn=wye bus1=p1ulv6364.1.2 kV=0.2080002494301389 Vminpu=0.8 Vmaxpu=1.2 model=1 kW=2.54003 kvar=0.5197487439894416 Phases=2

New Load.load_p1ulv6365 conn=wye bus1=p1ulv6365.1.2 kV=0.2080002494301389 Vminpu=0.8 Vmaxpu=1.2 model=1 kW=9.75 kvar=0.46040600660272657 Phases=2

New Load.load_p1ulv6366 conn=wye bus1=p1ulv6366.1.2 kV=0.2080002494301389 Vminpu=0.8 Vmaxpu=1.2 model=1 kW=10.4 kvar=0.5903918986071232 Phases=2

New Load.load_p1ulv6367 conn=wye bus1=p1ulv6367.1.2 kV=0.2080002494301389 Vminpu=0.8 Vmaxpu=1.2 model=1 kW=9.98 kvar=0.499683245129122 Phases=2

New Load.load_p1ulv6368 conn=wye bus1=p1ulv6368.1.2 kV=0.2080002494301389 Vminpu=0.8 Vmaxpu=1.2 model=1 kW=9.94 kvar=0.49033690113400924 Phases=2

New Load.load_p1ulv6369 conn=wye bus1=p1ulv6369.1.2 kV=0.2080002494301389 Vminpu=0.8 Vmaxpu=1.2 model=1 kW=10.57 kvar=0.620176126836135 Phases=2

New Load.load_p1ulv6370 conn=wye bus1=p1ulv6370.1.2 kV=0.2080002494301389 Vminpu=0.8 Vmaxpu=1.2 model=1 kW=10.37 kvar=0.5797741681037358 Phases=2

New Load.load_p1ulv6371 conn=wye bus1=p1ulv6371.1.2 kV=0.2080002494301389 Vminpu=0.8 Vmaxpu=1.2 model=1 kW=18.06 kvar=0.6197626431693976 Phases=2

New Load.load_p1ulv6372 conn=wye bus1=p1ulv6371.1.2 kV=0.2080002494301389 Vminpu=0.8 Vmaxpu=1.2 model=1 kW=17.06 kvar=0.4204557986498457 Phases=2

New Load.load_p1ulv6373 conn=wye bus1=p1ulv6373.1.2 kV=0.2080002494301389 Vminpu=0.8 Vmaxpu=1.2 model=1 kW=17.98 kvar=0.6097828960881785 Phases=2

New Load.load_p1ulv6374 conn=wye bus1=p1ulv6373.1.2 kV=0.2080002494301389 Vminpu=0.8 Vmaxpu=1.2 model=1 kW=17.96 kvar=0.5995091605836256 Phases=2

New Load.load_p1ulv6375 conn=wye bus1=p1ulv6375.1.2 kV=0.2080002494301389 Vminpu=0.8 Vmaxpu=1.2 model=1 kW=10.49 kvar=0.6102734204701886 Phases=2

New Load.load_p1ulv6376 conn=wye bus1=p1ulv6376.1.2 kV=0.2080002494301389 Vminpu=0.8 Vmaxpu=1.2 model=1 kW=2.31002 kvar=0.4702768914874764 Phases=2

New Load.load_p1ulv6377 conn=wye bus1=p1ulv6377.1.2 kV=0.2080002494301389 Vminpu=0.8 Vmaxpu=1.2 model=1 kW=16.89 kvar=0.37981104658211823 Phases=2

New Load.load_p1ulv6378 conn=wye bus1=p1ulv6377.1.2 kV=0.2080002494301389 Vminpu=0.8 Vmaxpu=1.2 model=1 kW=17.81 kvar=0.570600928141371 Phases=2

New Load.load_p1ulv6379 conn=wye bus1=p1ulv6379.1.2 kV=0.2080002494301389 Vminpu=0.8 Vmaxpu=1.2 model=1 kW=17.81 kvar=0.570600928141371 Phases=2

New Load.load_p1ulv6380 conn=wye bus1=p1ulv6379.1.2 kV=0.2080002494301389 Vminpu=0.8 Vmaxpu=1.2 model=1 kW=17.77 kvar=0.5595731887375364 Phases=2

New Load.load_p1ulv6381 conn=wye bus1=p1ulv6381.1.2 kV=0.2080002494301389 Vminpu=0.8 Vmaxpu=1.2 model=1 kW=10.35 kvar=0.5802128332421591 Phases=2

New Load.load_p1ulv6382 conn=wye bus1=p1ulv6382.1.2 kV=0.2080002494301389 Vminpu=0.8 Vmaxpu=1.2 model=1 kW=10.51 kvar=0.6096359018765115 Phases=2

New Load.load_p1ulv6383 conn=wye bus1=p1ulv6383.1.2 kV=0.2080002494301389 Vminpu=0.8 Vmaxpu=1.2 model=1 kW=10.69 kvar=0.6494304777239135 Phases=2

New Load.load_p1ulv6384 conn=wye bus1=p1ulv6384.1.2 kV=0.2080002494301389 Vminpu=0.8 Vmaxpu=1.2 model=1 kW=9.5 kvar=0.4102885228098566 Phases=2

New Load.load_p1ulv6385 conn=wye bus1=p1ulv6384.1.2 kV=0.2080002494301389 Vminpu=0.8 Vmaxpu=1.2 model=1 kW=10.21 kvar=0.5502950620779706 Phases=2

New Load.load_p1ulv6386 conn=wye bus1=p1ulv6386.1.2 kV=0.2080002494301389 Vminpu=0.8 Vmaxpu=1.2 model=1 kW=9.49 kvar=0.39990665650064394 Phases=2

New Load.load_p1ulv6387 conn=wye bus1=p1ulv6387.1.2 kV=0.2080002494301389 Vminpu=0.8 Vmaxpu=1.2 model=1 kW=10.61 kvar=0.6298893844622836 Phases=2

New Load.load_p1ulv6388 conn=wye bus1=p1ulv6388.1.2 kV=0.2080002494301389 Vminpu=0.8 Vmaxpu=1.2 model=1 kW=2.61003 kvar=0.5299891960145702 Phases=2

New Load.load_p1ulv6389 conn=wye bus1=p1ulv6389.1.2 kV=0.2080002494301389 Vminpu=0.8 Vmaxpu=1.2 model=1 kW=2.88003 kvar=0.5802786818127376 Phases=2

New Load.load_p1ulv6390 conn=wye bus1=p1ulv6389.1.2 kV=0.2080002494301389 Vminpu=0.8 Vmaxpu=1.2 model=1 kW=2.7600300000000004 kvar=0.5604479951096709 Phases=2

New Load.load_p1ulv6391 conn=wye bus1=p1ulv6391.1.2 kV=0.2080002494301389 Vminpu=0.8 Vmaxpu=1.2 model=1 kW=10.54 kvar=0.6204785592224786 Phases=2

New Load.load_p1ulv6392 conn=wye bus1=p1ulv6392.1.2 kV=0.2080002494301389 Vminpu=0.8 Vmaxpu=1.2 model=1 kW=2.83003 kvar=0.5702045040817287 Phases=2

New Load.load_p1ulv6393 conn=wye bus1=p1ulv6393.1.2 kV=0.2080002494301389 Vminpu=0.8 Vmaxpu=1.2 model=1 kW=25.8 kvar=0.6700996718520332 Phases=2

New Load.load_p1ulv6873 conn=wye bus1=p1ulv6873.1.2 kV=0.2080002494301389 Vminpu=0.8 Vmaxpu=1.2 model=1 kW=10.35 kvar=0.5802128332421591 Phases=2

New Load.load_p1ulv6880 conn=wye bus1=p1ulv6880.1.2 kV=0.2080002494301389 Vminpu=0.8 Vmaxpu=1.2 model=1 kW=12.9901 kvar=1.1205344401401856 Phases=2

New Load.load_p1ulv6881 conn=wye bus1=p1ulv6881.1.2 kV=0.2080002494301389 Vminpu=0.8 Vmaxpu=1.2 model=1 kW=2.8000300000000005 kvar=0.5700337678771953 Phases=2
