New Transformer.tr(r:udt938-udt938lv) phases=1 windings=3 %loadloss=0.798816 %Noloadloss=0.37 normhkva=55.0 wdg=1 conn=wye bus=udt938.1 Kv=7.199560000000001 kva=50.0 EmergHKVA=75.0 %r=0.266272 wdg=2 conn=wye bus=udt938lv.1.0 Kv=0.120089 kva=50.0 EmergHKVA=75.0 %r=0.532544 wdg=3 conn=wye bus=udt938lv.0.2 Kv=0.120089 kva=50.0 EmergHKVA=75.0 %r=0.532544 XHL=2.4 XLT=2.4 XHT=1.6

New Transformer.tr(r:udt939-udt939lv) phases=1 windings=3 %loadloss=0.798816 %Noloadloss=0.37 normhkva=55.0 wdg=1 conn=wye bus=udt939.1 Kv=7.199560000000001 kva=50.0 EmergHKVA=75.0 %r=0.266272 wdg=2 conn=wye bus=udt939lv.1.0 Kv=0.120089 kva=50.0 EmergHKVA=75.0 %r=0.532544 wdg=3 conn=wye bus=udt939lv.0.2 Kv=0.120089 kva=50.0 EmergHKVA=75.0 %r=0.532544 XHL=2.4 XLT=2.4 XHT=1.6

New Transformer.tr(r:udt940-udt940lv) phases=1 windings=3 %loadloss=0.798816 %Noloadloss=0.472 normhkva=27.5 wdg=1 conn=wye bus=udt940.3 Kv=7.199560000000001 kva=25.0 EmergHKVA=37.5 %r=0.266272 wdg=2 conn=wye bus=udt940lv.1.0 Kv=0.120089 kva=25.0 EmergHKVA=37.5 %r=0.532544 wdg=3 conn=wye bus=udt940lv.0.2 Kv=0.120089 kva=25.0 EmergHKVA=37.5 %r=0.532544 XHL=2.4 XLT=2.4 XHT=1.6

New Transformer.tr(r:udt941-udt941lv) phases=1 windings=3 %loadloss=0.798816 %Noloadloss=0.37 normhkva=55.0 wdg=1 conn=wye bus=udt941.3 Kv=7.199560000000001 kva=50.0 EmergHKVA=75.0 %r=0.266272 wdg=2 conn=wye bus=udt941lv.1.0 Kv=0.120089 kva=50.0 EmergHKVA=75.0 %r=0.532544 wdg=3 conn=wye bus=udt941lv.0.2 Kv=0.120089 kva=50.0 EmergHKVA=75.0 %r=0.532544 XHL=2.4 XLT=2.4 XHT=1.6

New Transformer.tr(r:udt959-udt959lv) phases=3 windings=2 %loadloss=1.4645 %Noloadloss=0.266 normhkva=550.0 wdg=1 conn=wye Kv=12.47 kva=500.0 EmergHKVA=750.0 %R=0.73225 bus=udt959 wdg=2 conn=wye Kv=0.48 kva=500.0 EmergHKVA=750.0 %R=0.73225 bus=udt959lv XHL=4.36

New Transformer.tr(r:udt968-udt968lv) phases=3 windings=2 %loadloss=1.61095 %Noloadloss=0.62 normhkva=110.0 wdg=1 conn=wye Kv=12.47 kva=100.0 EmergHKVA=150.0 %R=0.805475 bus=udt968 wdg=2 conn=wye Kv=0.48 kva=100.0 EmergHKVA=150.0 %R=0.805475 bus=udt968lv XHL=3.29

New Transformer.tr(r:udt969-udt969lv) phases=3 windings=2 %loadloss=1.74408 %Noloadloss=0.6 normhkva=82.5 wdg=1 conn=wye Kv=12.47 kva=75.0 EmergHKVA=112.5 %R=0.87204 bus=udt969 wdg=2 conn=wye Kv=0.48 kva=75.0 EmergHKVA=112.5 %R=0.87204 bus=udt969lv XHL=3.2400000000000007

New Transformer.tr(r:udt970-udt970lv) phases=1 windings=3 %loadloss=0.798816 %Noloadloss=0.472 normhkva=27.5 wdg=1 conn=wye bus=udt970.2 Kv=7.199560000000001 kva=25.0 EmergHKVA=37.5 %r=0.266272 wdg=2 conn=wye bus=udt970lv.1.0 Kv=0.120089 kva=25.0 EmergHKVA=37.5 %r=0.532544 wdg=3 conn=wye bus=udt970lv.0.2 Kv=0.120089 kva=25.0 EmergHKVA=37.5 %r=0.532544 XHL=2.4 XLT=2.4 XHT=1.6

New Transformer.tr(r:udt973-udt973lv) phases=1 windings=3 %loadloss=0.798816 %Noloadloss=0.37 normhkva=55.0 wdg=1 conn=wye bus=udt973.1 Kv=7.199560000000001 kva=50.0 EmergHKVA=75.0 %r=0.266272 wdg=2 conn=wye bus=udt973lv.1.0 Kv=0.120089 kva=50.0 EmergHKVA=75.0 %r=0.532544 wdg=3 conn=wye bus=udt973lv.0.2 Kv=0.120089 kva=50.0 EmergHKVA=75.0 %r=0.532544 XHL=2.4 XLT=2.4 XHT=1.6

New Transformer.tr(r:udt974-udt974lv) phases=3 windings=2 %loadloss=1.74408 %Noloadloss=0.6 normhkva=82.5 wdg=1 conn=wye Kv=12.47 kva=75.0 EmergHKVA=112.5 %R=0.87204 bus=udt974 wdg=2 conn=wye Kv=0.48 kva=75.0 EmergHKVA=112.5 %R=0.87204 bus=udt974lv XHL=3.2400000000000007

New Transformer.tr(r:udt975-udt975lv) phases=3 windings=2 %loadloss=1.82396 %Noloadloss=0.325 normhkva=330.0 wdg=1 conn=wye Kv=12.47 kva=300.0 EmergHKVA=450.0 %R=0.91198 bus=udt975 wdg=2 conn=wye Kv=0.48 kva=300.0 EmergHKVA=450.0 %R=0.91198 bus=udt975lv XHL=3.7599999999999993

New Transformer.tr(r:udt976-udt976lv) phases=3 windings=2 %loadloss=1.74408 %Noloadloss=0.6 normhkva=82.5 wdg=1 conn=wye Kv=12.47 kva=75.0 EmergHKVA=112.5 %R=0.87204 bus=udt976 wdg=2 conn=wye Kv=0.48 kva=75.0 EmergHKVA=112.5 %R=0.87204 bus=udt976lv XHL=3.2400000000000007

New Transformer.tr(r:udt977-udt977lv) phases=3 windings=2 %loadloss=1.82396 %Noloadloss=0.325 normhkva=330.0 wdg=1 conn=wye Kv=12.47 kva=300.0 EmergHKVA=450.0 %R=0.91198 bus=udt977 wdg=2 conn=wye Kv=0.48 kva=300.0 EmergHKVA=450.0 %R=0.91198 bus=udt977lv XHL=3.7599999999999993

New Transformer.tr(r:udt978-udt978lv) phases=1 windings=3 %loadloss=0.798816 %Noloadloss=0.472 normhkva=27.5 wdg=1 conn=wye bus=udt978.1 Kv=7.199560000000001 kva=25.0 EmergHKVA=37.5 %r=0.266272 wdg=2 conn=wye bus=udt978lv.1.0 Kv=0.120089 kva=25.0 EmergHKVA=37.5 %r=0.532544 wdg=3 conn=wye bus=udt978lv.0.2 Kv=0.120089 kva=25.0 EmergHKVA=37.5 %r=0.532544 XHL=2.4 XLT=2.4 XHT=1.6

New Transformer.tr(r:udt979-udt979lv) phases=1 windings=3 %loadloss=0.798816 %Noloadloss=0.37 normhkva=55.0 wdg=1 conn=wye bus=udt979.3 Kv=7.199560000000001 kva=50.0 EmergHKVA=75.0 %r=0.266272 wdg=2 conn=wye bus=udt979lv.1.0 Kv=0.120089 kva=50.0 EmergHKVA=75.0 %r=0.532544 wdg=3 conn=wye bus=udt979lv.0.2 Kv=0.120089 kva=50.0 EmergHKVA=75.0 %r=0.532544 XHL=2.4 XLT=2.4 XHT=1.6

New Transformer.tr(r:udt980-udt980lv) phases=1 windings=3 %loadloss=0.798816 %Noloadloss=0.472 normhkva=27.5 wdg=1 conn=wye bus=udt980.1 Kv=7.199560000000001 kva=25.0 EmergHKVA=37.5 %r=0.266272 wdg=2 conn=wye bus=udt980lv.1.0 Kv=0.120089 kva=25.0 EmergHKVA=37.5 %r=0.532544 wdg=3 conn=wye bus=udt980lv.0.2 Kv=0.120089 kva=25.0 EmergHKVA=37.5 %r=0.532544 XHL=2.4 XLT=2.4 XHT=1.6

New Transformer.tr(r:udt981-udt981lv) phases=1 windings=3 %loadloss=0.798816 %Noloadloss=0.472 normhkva=27.5 wdg=1 conn=wye bus=udt981.3 Kv=7.199560000000001 kva=25.0 EmergHKVA=37.5 %r=0.266272 wdg=2 conn=wye bus=udt981lv.1.0 Kv=0.120089 kva=25.0 EmergHKVA=37.5 %r=0.532544 wdg=3 conn=wye bus=udt981lv.0.2 Kv=0.120089 kva=25.0 EmergHKVA=37.5 %r=0.532544 XHL=2.4 XLT=2.4 XHT=1.6

New Transformer.tr(r:udt982-udt982lv) phases=1 windings=3 %loadloss=0.798816 %Noloadloss=0.472 normhkva=27.5 wdg=1 conn=wye bus=udt982.3 Kv=7.199560000000001 kva=25.0 EmergHKVA=37.5 %r=0.266272 wdg=2 conn=wye bus=udt982lv.1.0 Kv=0.120089 kva=25.0 EmergHKVA=37.5 %r=0.532544 wdg=3 conn=wye bus=udt982lv.0.2 Kv=0.120089 kva=25.0 EmergHKVA=37.5 %r=0.532544 XHL=2.4 XLT=2.4 XHT=1.6

New Transformer.tr(r:udt983-udt983lv) phases=1 windings=3 %loadloss=0.798816 %Noloadloss=0.37 normhkva=55.0 wdg=1 conn=wye bus=udt983.1 Kv=7.199560000000001 kva=50.0 EmergHKVA=75.0 %r=0.266272 wdg=2 conn=wye bus=udt983lv.1.0 Kv=0.120089 kva=50.0 EmergHKVA=75.0 %r=0.532544 wdg=3 conn=wye bus=udt983lv.0.2 Kv=0.120089 kva=50.0 EmergHKVA=75.0 %r=0.532544 XHL=2.4 XLT=2.4 XHT=1.6

New Transformer.tr(r:udt984-udt984lv) phases=3 windings=2 %loadloss=1.82396 %Noloadloss=0.325 normhkva=330.0 wdg=1 conn=wye Kv=12.47 kva=300.0 EmergHKVA=450.0 %R=0.91198 bus=udt984 wdg=2 conn=wye Kv=0.48 kva=300.0 EmergHKVA=450.0 %R=0.91198 bus=udt984lv XHL=3.7599999999999993

New Transformer.tr(r:udt985-udt985lv) phases=1 windings=3 %loadloss=0.798816 %Noloadloss=0.472 normhkva=27.5 wdg=1 conn=wye bus=udt985.3 Kv=7.199560000000001 kva=25.0 EmergHKVA=37.5 %r=0.266272 wdg=2 conn=wye bus=udt985lv.1.0 Kv=0.120089 kva=25.0 EmergHKVA=37.5 %r=0.532544 wdg=3 conn=wye bus=udt985lv.0.2 Kv=0.120089 kva=25.0 EmergHKVA=37.5 %r=0.532544 XHL=2.4 XLT=2.4 XHT=1.6

New Transformer.tr(r:udt986-udt986lv) phases=1 windings=3 %loadloss=0.798816 %Noloadloss=0.37 normhkva=55.0 wdg=1 conn=wye bus=udt986.3 Kv=7.199560000000001 kva=50.0 EmergHKVA=75.0 %r=0.266272 wdg=2 conn=wye bus=udt986lv.1.0 Kv=0.120089 kva=50.0 EmergHKVA=75.0 %r=0.532544 wdg=3 conn=wye bus=udt986lv.0.2 Kv=0.120089 kva=50.0 EmergHKVA=75.0 %r=0.532544 XHL=2.4 XLT=2.4 XHT=1.6

New Transformer.tr(r:udt987-udt987lv) phases=1 windings=3 %loadloss=0.798816 %Noloadloss=0.472 normhkva=27.5 wdg=1 conn=wye bus=udt987.2 Kv=7.199560000000001 kva=25.0 EmergHKVA=37.5 %r=0.266272 wdg=2 conn=wye bus=udt987lv.1.0 Kv=0.120089 kva=25.0 EmergHKVA=37.5 %r=0.532544 wdg=3 conn=wye bus=udt987lv.0.2 Kv=0.120089 kva=25.0 EmergHKVA=37.5 %r=0.532544 XHL=2.4 XLT=2.4 XHT=1.6

New Transformer.tr(r:udt988-udt988lv) phases=1 windings=3 %loadloss=0.798816 %Noloadloss=0.472 normhkva=27.5 wdg=1 conn=wye bus=udt988.3 Kv=7.199560000000001 kva=25.0 EmergHKVA=37.5 %r=0.266272 wdg=2 conn=wye bus=udt988lv.1.0 Kv=0.120089 kva=25.0 EmergHKVA=37.5 %r=0.532544 wdg=3 conn=wye bus=udt988lv.0.2 Kv=0.120089 kva=25.0 EmergHKVA=37.5 %r=0.532544 XHL=2.4 XLT=2.4 XHT=1.6

New Transformer.tr(r:udt990-udt990lv) phases=1 windings=3 %loadloss=0.798816 %Noloadloss=0.472 normhkva=27.5 wdg=1 conn=wye bus=udt990.2 Kv=7.199560000000001 kva=25.0 EmergHKVA=37.5 %r=0.266272 wdg=2 conn=wye bus=udt990lv.1.0 Kv=0.120089 kva=25.0 EmergHKVA=37.5 %r=0.532544 wdg=3 conn=wye bus=udt990lv.0.2 Kv=0.120089 kva=25.0 EmergHKVA=37.5 %r=0.532544 XHL=2.4 XLT=2.4 XHT=1.6

New Transformer.tr(r:udt992-udt992lv) phases=1 windings=3 %loadloss=0.798816 %Noloadloss=0.472 normhkva=27.5 wdg=1 conn=wye bus=udt992.2 Kv=7.199560000000001 kva=25.0 EmergHKVA=37.5 %r=0.266272 wdg=2 conn=wye bus=udt992lv.1.0 Kv=0.120089 kva=25.0 EmergHKVA=37.5 %r=0.532544 wdg=3 conn=wye bus=udt992lv.0.2 Kv=0.120089 kva=25.0 EmergHKVA=37.5 %r=0.532544 XHL=2.4 XLT=2.4 XHT=1.6

New Transformer.tr(r:udt993-udt993lv) phases=1 windings=3 %loadloss=0.798816 %Noloadloss=0.37 normhkva=55.0 wdg=1 conn=wye bus=udt993.3 Kv=7.199560000000001 kva=50.0 EmergHKVA=75.0 %r=0.266272 wdg=2 conn=wye bus=udt993lv.1.0 Kv=0.120089 kva=50.0 EmergHKVA=75.0 %r=0.532544 wdg=3 conn=wye bus=udt993lv.0.2 Kv=0.120089 kva=50.0 EmergHKVA=75.0 %r=0.532544 XHL=2.4 XLT=2.4 XHT=1.6

New Transformer.tr(r:udt994-udt994lv) phases=1 windings=3 %loadloss=0.798816 %Noloadloss=0.472 normhkva=27.5 wdg=1 conn=wye bus=udt994.1 Kv=7.199560000000001 kva=25.0 EmergHKVA=37.5 %r=0.266272 wdg=2 conn=wye bus=udt994lv.1.0 Kv=0.120089 kva=25.0 EmergHKVA=37.5 %r=0.532544 wdg=3 conn=wye bus=udt994lv.0.2 Kv=0.120089 kva=25.0 EmergHKVA=37.5 %r=0.532544 XHL=2.4 XLT=2.4 XHT=1.6

New Transformer.tr(r:udt995-udt995lv) phases=1 windings=3 %loadloss=0.798816 %Noloadloss=0.37 normhkva=55.0 wdg=1 conn=wye bus=udt995.3 Kv=7.199560000000001 kva=50.0 EmergHKVA=75.0 %r=0.266272 wdg=2 conn=wye bus=udt995lv.1.0 Kv=0.120089 kva=50.0 EmergHKVA=75.0 %r=0.532544 wdg=3 conn=wye bus=udt995lv.0.2 Kv=0.120089 kva=50.0 EmergHKVA=75.0 %r=0.532544 XHL=2.4 XLT=2.4 XHT=1.6

New Transformer.tr(r:udt996-udt996lv) phases=1 windings=3 %loadloss=0.798816 %Noloadloss=0.472 normhkva=27.5 wdg=1 conn=wye bus=udt996.1 Kv=7.199560000000001 kva=25.0 EmergHKVA=37.5 %r=0.266272 wdg=2 conn=wye bus=udt996lv.1.0 Kv=0.120089 kva=25.0 EmergHKVA=37.5 %r=0.532544 wdg=3 conn=wye bus=udt996lv.0.2 Kv=0.120089 kva=25.0 EmergHKVA=37.5 %r=0.532544 XHL=2.4 XLT=2.4 XHT=1.6

New Transformer.tr(r:udt997-udt997lv) phases=1 windings=3 %loadloss=0.798816 %Noloadloss=0.37 normhkva=55.0 wdg=1 conn=wye bus=udt997.1 Kv=7.199560000000001 kva=50.0 EmergHKVA=75.0 %r=0.266272 wdg=2 conn=wye bus=udt997lv.1.0 Kv=0.120089 kva=50.0 EmergHKVA=75.0 %r=0.532544 wdg=3 conn=wye bus=udt997lv.0.2 Kv=0.120089 kva=50.0 EmergHKVA=75.0 %r=0.532544 XHL=2.4 XLT=2.4 XHT=1.6

New Transformer.tr(r:udt998-udt998lv) phases=1 windings=3 %loadloss=0.798816 %Noloadloss=0.472 normhkva=27.5 wdg=1 conn=wye bus=udt998.3 Kv=7.199560000000001 kva=25.0 EmergHKVA=37.5 %r=0.266272 wdg=2 conn=wye bus=udt998lv.1.0 Kv=0.120089 kva=25.0 EmergHKVA=37.5 %r=0.532544 wdg=3 conn=wye bus=udt998lv.0.2 Kv=0.120089 kva=25.0 EmergHKVA=37.5 %r=0.532544 XHL=2.4 XLT=2.4 XHT=1.6

New Transformer.tr(r:udt999-udt999lv) phases=1 windings=3 %loadloss=0.798816 %Noloadloss=0.37 normhkva=55.0 wdg=1 conn=wye bus=udt999.1 Kv=7.199560000000001 kva=50.0 EmergHKVA=75.0 %r=0.266272 wdg=2 conn=wye bus=udt999lv.1.0 Kv=0.120089 kva=50.0 EmergHKVA=75.0 %r=0.532544 wdg=3 conn=wye bus=udt999lv.0.2 Kv=0.120089 kva=50.0 EmergHKVA=75.0 %r=0.532544 XHL=2.4 XLT=2.4 XHT=1.6

New Transformer.tr(r:udt1000-udt1000lv) phases=1 windings=3 %loadloss=0.798816 %Noloadloss=0.37 normhkva=55.0 wdg=1 conn=wye bus=udt1000.2 Kv=7.199560000000001 kva=50.0 EmergHKVA=75.0 %r=0.266272 wdg=2 conn=wye bus=udt1000lv.1.0 Kv=0.120089 kva=50.0 EmergHKVA=75.0 %r=0.532544 wdg=3 conn=wye bus=udt1000lv.0.2 Kv=0.120089 kva=50.0 EmergHKVA=75.0 %r=0.532544 XHL=2.4 XLT=2.4 XHT=1.6

New Transformer.tr(r:udt1001-udt1001lv) phases=3 windings=2 %loadloss=1.61095 %Noloadloss=0.62 normhkva=110.0 wdg=1 conn=wye Kv=12.47 kva=100.0 EmergHKVA=150.0 %R=0.805475 bus=udt1001 wdg=2 conn=wye Kv=0.48 kva=100.0 EmergHKVA=150.0 %R=0.805475 bus=udt1001lv XHL=3.29

New Transformer.tr(r:udt1002-udt1002lv) phases=1 windings=3 %loadloss=0.798816 %Noloadloss=0.37 normhkva=55.0 wdg=1 conn=wye bus=udt1002.2 Kv=7.199560000000001 kva=50.0 EmergHKVA=75.0 %r=0.266272 wdg=2 conn=wye bus=udt1002lv.1.0 Kv=0.120089 kva=50.0 EmergHKVA=75.0 %r=0.532544 wdg=3 conn=wye bus=udt1002lv.0.2 Kv=0.120089 kva=50.0 EmergHKVA=75.0 %r=0.532544 XHL=2.4 XLT=2.4 XHT=1.6

New Transformer.tr(r:udt1003-udt1003lv) phases=1 windings=3 %loadloss=0.798816 %Noloadloss=0.37 normhkva=55.0 wdg=1 conn=wye bus=udt1003.2 Kv=7.199560000000001 kva=50.0 EmergHKVA=75.0 %r=0.266272 wdg=2 conn=wye bus=udt1003lv.1.0 Kv=0.120089 kva=50.0 EmergHKVA=75.0 %r=0.532544 wdg=3 conn=wye bus=udt1003lv.0.2 Kv=0.120089 kva=50.0 EmergHKVA=75.0 %r=0.532544 XHL=2.4 XLT=2.4 XHT=1.6

New Transformer.tr(r:udt1004-udt1004lv) phases=1 windings=3 %loadloss=0.798816 %Noloadloss=0.472 normhkva=27.5 wdg=1 conn=wye bus=udt1004.3 Kv=7.199560000000001 kva=25.0 EmergHKVA=37.5 %r=0.266272 wdg=2 conn=wye bus=udt1004lv.1.0 Kv=0.120089 kva=25.0 EmergHKVA=37.5 %r=0.532544 wdg=3 conn=wye bus=udt1004lv.0.2 Kv=0.120089 kva=25.0 EmergHKVA=37.5 %r=0.532544 XHL=2.4 XLT=2.4 XHT=1.6

New Transformer.tr(r:udt1006-udt1006lv) phases=3 windings=2 %loadloss=1.74408 %Noloadloss=0.6 normhkva=82.5 wdg=1 conn=wye Kv=12.47 kva=75.0 EmergHKVA=112.5 %R=0.87204 bus=udt1006 wdg=2 conn=wye Kv=0.48 kva=75.0 EmergHKVA=112.5 %R=0.87204 bus=udt1006lv XHL=3.2400000000000007

New Transformer.tr(r:udt1007-udt1007lv) phases=1 windings=3 %loadloss=0.798816 %Noloadloss=0.472 normhkva=27.5 wdg=1 conn=wye bus=udt1007.1 Kv=7.199560000000001 kva=25.0 EmergHKVA=37.5 %r=0.266272 wdg=2 conn=wye bus=udt1007lv.1.0 Kv=0.120089 kva=25.0 EmergHKVA=37.5 %r=0.532544 wdg=3 conn=wye bus=udt1007lv.0.2 Kv=0.120089 kva=25.0 EmergHKVA=37.5 %r=0.532544 XHL=2.4 XLT=2.4 XHT=1.6

New Transformer.tr(r:udt1008-udt1008lv) phases=1 windings=3 %loadloss=0.798816 %Noloadloss=0.472 normhkva=27.5 wdg=1 conn=wye bus=udt1008.2 Kv=7.199560000000001 kva=25.0 EmergHKVA=37.5 %r=0.266272 wdg=2 conn=wye bus=udt1008lv.1.0 Kv=0.120089 kva=25.0 EmergHKVA=37.5 %r=0.532544 wdg=3 conn=wye bus=udt1008lv.0.2 Kv=0.120089 kva=25.0 EmergHKVA=37.5 %r=0.532544 XHL=2.4 XLT=2.4 XHT=1.6

New Transformer.tr(r:udt1009-udt1009lv) phases=1 windings=3 %loadloss=0.798816 %Noloadloss=0.37 normhkva=55.0 wdg=1 conn=wye bus=udt1009.3 Kv=7.199560000000001 kva=50.0 EmergHKVA=75.0 %r=0.266272 wdg=2 conn=wye bus=udt1009lv.1.0 Kv=0.120089 kva=50.0 EmergHKVA=75.0 %r=0.532544 wdg=3 conn=wye bus=udt1009lv.0.2 Kv=0.120089 kva=50.0 EmergHKVA=75.0 %r=0.532544 XHL=2.4 XLT=2.4 XHT=1.6

New Transformer.tr(r:udt1010-udt1010lv) phases=1 windings=3 %loadloss=0.798816 %Noloadloss=0.472 normhkva=27.5 wdg=1 conn=wye bus=udt1010.1 Kv=7.199560000000001 kva=25.0 EmergHKVA=37.5 %r=0.266272 wdg=2 conn=wye bus=udt1010lv.1.0 Kv=0.120089 kva=25.0 EmergHKVA=37.5 %r=0.532544 wdg=3 conn=wye bus=udt1010lv.0.2 Kv=0.120089 kva=25.0 EmergHKVA=37.5 %r=0.532544 XHL=2.4 XLT=2.4 XHT=1.6

New Transformer.tr(r:udt1011-udt1011lv) phases=1 windings=3 %loadloss=0.798816 %Noloadloss=0.472 normhkva=27.5 wdg=1 conn=wye bus=udt1011.3 Kv=7.199560000000001 kva=25.0 EmergHKVA=37.5 %r=0.266272 wdg=2 conn=wye bus=udt1011lv.1.0 Kv=0.120089 kva=25.0 EmergHKVA=37.5 %r=0.532544 wdg=3 conn=wye bus=udt1011lv.0.2 Kv=0.120089 kva=25.0 EmergHKVA=37.5 %r=0.532544 XHL=2.4 XLT=2.4 XHT=1.6

New Transformer.tr(r:udt1012-udt1012lv) phases=1 windings=3 %loadloss=0.798816 %Noloadloss=0.472 normhkva=27.5 wdg=1 conn=wye bus=udt1012.3 Kv=7.199560000000001 kva=25.0 EmergHKVA=37.5 %r=0.266272 wdg=2 conn=wye bus=udt1012lv.1.0 Kv=0.120089 kva=25.0 EmergHKVA=37.5 %r=0.532544 wdg=3 conn=wye bus=udt1012lv.0.2 Kv=0.120089 kva=25.0 EmergHKVA=37.5 %r=0.532544 XHL=2.4 XLT=2.4 XHT=1.6

New Transformer.tr(r:udt1013-udt1013lv) phases=1 windings=3 %loadloss=0.798816 %Noloadloss=0.472 normhkva=27.5 wdg=1 conn=wye bus=udt1013.3 Kv=7.199560000000001 kva=25.0 EmergHKVA=37.5 %r=0.266272 wdg=2 conn=wye bus=udt1013lv.1.0 Kv=0.120089 kva=25.0 EmergHKVA=37.5 %r=0.532544 wdg=3 conn=wye bus=udt1013lv.0.2 Kv=0.120089 kva=25.0 EmergHKVA=37.5 %r=0.532544 XHL=2.4 XLT=2.4 XHT=1.6

New Transformer.tr(r:udt1014-udt1014lv) phases=1 windings=3 %loadloss=0.798816 %Noloadloss=0.472 normhkva=27.5 wdg=1 conn=wye bus=udt1014.2 Kv=7.199560000000001 kva=25.0 EmergHKVA=37.5 %r=0.266272 wdg=2 conn=wye bus=udt1014lv.1.0 Kv=0.120089 kva=25.0 EmergHKVA=37.5 %r=0.532544 wdg=3 conn=wye bus=udt1014lv.0.2 Kv=0.120089 kva=25.0 EmergHKVA=37.5 %r=0.532544 XHL=2.4 XLT=2.4 XHT=1.6

New Transformer.tr(r:udt1015-udt1015lv) phases=1 windings=3 %loadloss=0.798816 %Noloadloss=0.472 normhkva=27.5 wdg=1 conn=wye bus=udt1015.1 Kv=7.199560000000001 kva=25.0 EmergHKVA=37.5 %r=0.266272 wdg=2 conn=wye bus=udt1015lv.1.0 Kv=0.120089 kva=25.0 EmergHKVA=37.5 %r=0.532544 wdg=3 conn=wye bus=udt1015lv.0.2 Kv=0.120089 kva=25.0 EmergHKVA=37.5 %r=0.532544 XHL=2.4 XLT=2.4 XHT=1.6

New Transformer.tr(r:udt1016-udt1016lv) phases=1 windings=3 %loadloss=0.798816 %Noloadloss=0.472 normhkva=27.5 wdg=1 conn=wye bus=udt1016.3 Kv=7.199560000000001 kva=25.0 EmergHKVA=37.5 %r=0.266272 wdg=2 conn=wye bus=udt1016lv.1.0 Kv=0.120089 kva=25.0 EmergHKVA=37.5 %r=0.532544 wdg=3 conn=wye bus=udt1016lv.0.2 Kv=0.120089 kva=25.0 EmergHKVA=37.5 %r=0.532544 XHL=2.4 XLT=2.4 XHT=1.6

New Transformer.tr(r:udt1017-udt1017lv) phases=1 windings=3 %loadloss=0.798816 %Noloadloss=0.472 normhkva=27.5 wdg=1 conn=wye bus=udt1017.1 Kv=7.199560000000001 kva=25.0 EmergHKVA=37.5 %r=0.266272 wdg=2 conn=wye bus=udt1017lv.1.0 Kv=0.120089 kva=25.0 EmergHKVA=37.5 %r=0.532544 wdg=3 conn=wye bus=udt1017lv.0.2 Kv=0.120089 kva=25.0 EmergHKVA=37.5 %r=0.532544 XHL=2.4 XLT=2.4 XHT=1.6

New Transformer.tr(r:udt1018-udt1018lv) phases=1 windings=3 %loadloss=0.798816 %Noloadloss=0.472 normhkva=27.5 wdg=1 conn=wye bus=udt1018.1 Kv=7.199560000000001 kva=25.0 EmergHKVA=37.5 %r=0.266272 wdg=2 conn=wye bus=udt1018lv.1.0 Kv=0.120089 kva=25.0 EmergHKVA=37.5 %r=0.532544 wdg=3 conn=wye bus=udt1018lv.0.2 Kv=0.120089 kva=25.0 EmergHKVA=37.5 %r=0.532544 XHL=2.4 XLT=2.4 XHT=1.6

New Transformer.tr(r:udt1404-udt1404lv) phases=1 windings=3 %loadloss=0.798816 %Noloadloss=0.472 normhkva=27.5 wdg=1 conn=wye bus=udt1404.3 Kv=7.199560000000001 kva=25.0 EmergHKVA=37.5 %r=0.266272 wdg=2 conn=wye bus=udt1404lv.1.0 Kv=0.120089 kva=25.0 EmergHKVA=37.5 %r=0.532544 wdg=3 conn=wye bus=udt1404lv.0.2 Kv=0.120089 kva=25.0 EmergHKVA=37.5 %r=0.532544 XHL=2.4 XLT=2.4 XHT=1.6

New Transformer.tr(r:udt1412-udt1412lv) phases=1 windings=3 %loadloss=0.798816 %Noloadloss=0.472 normhkva=27.5 wdg=1 conn=wye bus=udt1412.2 Kv=7.199560000000001 kva=25.0 EmergHKVA=37.5 %r=0.266272 wdg=2 conn=wye bus=udt1412lv.1.0 Kv=0.120089 kva=25.0 EmergHKVA=37.5 %r=0.532544 wdg=3 conn=wye bus=udt1412lv.0.2 Kv=0.120089 kva=25.0 EmergHKVA=37.5 %r=0.532544 XHL=2.4 XLT=2.4 XHT=1.6

New Transformer.tr(r:udt1413-udt1413lv) phases=1 windings=3 %loadloss=0.798816 %Noloadloss=0.37 normhkva=55.0 wdg=1 conn=wye bus=udt1413.2 Kv=7.199560000000001 kva=50.0 EmergHKVA=75.0 %r=0.266272 wdg=2 conn=wye bus=udt1413lv.1.0 Kv=0.120089 kva=50.0 EmergHKVA=75.0 %r=0.532544 wdg=3 conn=wye bus=udt1413lv.0.2 Kv=0.120089 kva=50.0 EmergHKVA=75.0 %r=0.532544 XHL=2.4 XLT=2.4 XHT=1.6

New Transformer.tr(r:udt1416-udt1416lv) phases=1 windings=3 %loadloss=0.798816 %Noloadloss=0.37 normhkva=55.0 wdg=1 conn=wye bus=udt1416.2 Kv=7.199560000000001 kva=50.0 EmergHKVA=75.0 %r=0.266272 wdg=2 conn=wye bus=udt1416lv.1.0 Kv=0.120089 kva=50.0 EmergHKVA=75.0 %r=0.532544 wdg=3 conn=wye bus=udt1416lv.0.2 Kv=0.120089 kva=50.0 EmergHKVA=75.0 %r=0.532544 XHL=2.4 XLT=2.4 XHT=1.6

New Transformer.tr(r:udt1417-udt1417lv) phases=1 windings=3 %loadloss=0.798816 %Noloadloss=0.37 normhkva=55.0 wdg=1 conn=wye bus=udt1417.2 Kv=7.199560000000001 kva=50.0 EmergHKVA=75.0 %r=0.266272 wdg=2 conn=wye bus=udt1417lv.1.0 Kv=0.120089 kva=50.0 EmergHKVA=75.0 %r=0.532544 wdg=3 conn=wye bus=udt1417lv.0.2 Kv=0.120089 kva=50.0 EmergHKVA=75.0 %r=0.532544 XHL=2.4 XLT=2.4 XHT=1.6

New Transformer.tr(r:udt1419-udt1419lv) phases=1 windings=3 %loadloss=0.798816 %Noloadloss=0.37 normhkva=55.0 wdg=1 conn=wye bus=udt1419.2 Kv=7.199560000000001 kva=50.0 EmergHKVA=75.0 %r=0.266272 wdg=2 conn=wye bus=udt1419lv.1.0 Kv=0.120089 kva=50.0 EmergHKVA=75.0 %r=0.532544 wdg=3 conn=wye bus=udt1419lv.0.2 Kv=0.120089 kva=50.0 EmergHKVA=75.0 %r=0.532544 XHL=2.4 XLT=2.4 XHT=1.6

New Transformer.tr(r:udt1420-udt1420lv) phases=1 windings=3 %loadloss=0.798816 %Noloadloss=0.472 normhkva=27.5 wdg=1 conn=wye bus=udt1420.1 Kv=7.199560000000001 kva=25.0 EmergHKVA=37.5 %r=0.266272 wdg=2 conn=wye bus=udt1420lv.1.0 Kv=0.120089 kva=25.0 EmergHKVA=37.5 %r=0.532544 wdg=3 conn=wye bus=udt1420lv.0.2 Kv=0.120089 kva=25.0 EmergHKVA=37.5 %r=0.532544 XHL=2.4 XLT=2.4 XHT=1.6

New Transformer.tr(r:udt1421-udt1421lv) phases=1 windings=3 %loadloss=0.798816 %Noloadloss=0.37 normhkva=55.0 wdg=1 conn=wye bus=udt1421.1 Kv=7.199560000000001 kva=50.0 EmergHKVA=75.0 %r=0.266272 wdg=2 conn=wye bus=udt1421lv.1.0 Kv=0.120089 kva=50.0 EmergHKVA=75.0 %r=0.532544 wdg=3 conn=wye bus=udt1421lv.0.2 Kv=0.120089 kva=50.0 EmergHKVA=75.0 %r=0.532544 XHL=2.4 XLT=2.4 XHT=1.6

New Transformer.tr(r:udt1422-udt1422lv) phases=1 windings=3 %loadloss=0.798816 %Noloadloss=0.472 normhkva=27.5 wdg=1 conn=wye bus=udt1422.3 Kv=7.199560000000001 kva=25.0 EmergHKVA=37.5 %r=0.266272 wdg=2 conn=wye bus=udt1422lv.1.0 Kv=0.120089 kva=25.0 EmergHKVA=37.5 %r=0.532544 wdg=3 conn=wye bus=udt1422lv.0.2 Kv=0.120089 kva=25.0 EmergHKVA=37.5 %r=0.532544 XHL=2.4 XLT=2.4 XHT=1.6

New Transformer.tr(r:udt1423-udt1423lv) phases=1 windings=3 %loadloss=0.798816 %Noloadloss=0.37 normhkva=55.0 wdg=1 conn=wye bus=udt1423.2 Kv=7.199560000000001 kva=50.0 EmergHKVA=75.0 %r=0.266272 wdg=2 conn=wye bus=udt1423lv.1.0 Kv=0.120089 kva=50.0 EmergHKVA=75.0 %r=0.532544 wdg=3 conn=wye bus=udt1423lv.0.2 Kv=0.120089 kva=50.0 EmergHKVA=75.0 %r=0.532544 XHL=2.4 XLT=2.4 XHT=1.6

New Transformer.tr(r:udt1424-udt1424lv) phases=1 windings=3 %loadloss=0.798816 %Noloadloss=0.472 normhkva=27.5 wdg=1 conn=wye bus=udt1424.1 Kv=7.199560000000001 kva=25.0 EmergHKVA=37.5 %r=0.266272 wdg=2 conn=wye bus=udt1424lv.1.0 Kv=0.120089 kva=25.0 EmergHKVA=37.5 %r=0.532544 wdg=3 conn=wye bus=udt1424lv.0.2 Kv=0.120089 kva=25.0 EmergHKVA=37.5 %r=0.532544 XHL=2.4 XLT=2.4 XHT=1.6

New Transformer.tr(r:udt1425-udt1425lv) phases=1 windings=3 %loadloss=0.798816 %Noloadloss=0.472 normhkva=27.5 wdg=1 conn=wye bus=udt1425.2 Kv=7.199560000000001 kva=25.0 EmergHKVA=37.5 %r=0.266272 wdg=2 conn=wye bus=udt1425lv.1.0 Kv=0.120089 kva=25.0 EmergHKVA=37.5 %r=0.532544 wdg=3 conn=wye bus=udt1425lv.0.2 Kv=0.120089 kva=25.0 EmergHKVA=37.5 %r=0.532544 XHL=2.4 XLT=2.4 XHT=1.6

New Transformer.tr(r:udt1427-udt1427lv) phases=1 windings=3 %loadloss=0.798816 %Noloadloss=0.472 normhkva=27.5 wdg=1 conn=wye bus=udt1427.1 Kv=7.199560000000001 kva=25.0 EmergHKVA=37.5 %r=0.266272 wdg=2 conn=wye bus=udt1427lv.1.0 Kv=0.120089 kva=25.0 EmergHKVA=37.5 %r=0.532544 wdg=3 conn=wye bus=udt1427lv.0.2 Kv=0.120089 kva=25.0 EmergHKVA=37.5 %r=0.532544 XHL=2.4 XLT=2.4 XHT=1.6

New Transformer.tr(r:udt1428-udt1428lv) phases=1 windings=3 %loadloss=0.798816 %Noloadloss=0.472 normhkva=27.5 wdg=1 conn=wye bus=udt1428.1 Kv=7.199560000000001 kva=25.0 EmergHKVA=37.5 %r=0.266272 wdg=2 conn=wye bus=udt1428lv.1.0 Kv=0.120089 kva=25.0 EmergHKVA=37.5 %r=0.532544 wdg=3 conn=wye bus=udt1428lv.0.2 Kv=0.120089 kva=25.0 EmergHKVA=37.5 %r=0.532544 XHL=2.4 XLT=2.4 XHT=1.6

New Transformer.tr(r:udt2218-udt2218lv) phases=1 windings=3 %loadloss=0.798816 %Noloadloss=0.472 normhkva=27.5 wdg=1 conn=wye bus=udt2218.3 Kv=7.199560000000001 kva=25.0 EmergHKVA=37.5 %r=0.266272 wdg=2 conn=wye bus=udt2218lv.1.0 Kv=0.120089 kva=25.0 EmergHKVA=37.5 %r=0.532544 wdg=3 conn=wye bus=udt2218lv.0.2 Kv=0.120089 kva=25.0 EmergHKVA=37.5 %r=0.532544 XHL=2.4 XLT=2.4 XHT=1.6

New Transformer.tr(r:udt2220-udt2220lv) phases=1 windings=3 %loadloss=0.798816 %Noloadloss=0.472 normhkva=27.5 wdg=1 conn=wye bus=udt2220.3 Kv=7.199560000000001 kva=25.0 EmergHKVA=37.5 %r=0.266272 wdg=2 conn=wye bus=udt2220lv.1.0 Kv=0.120089 kva=25.0 EmergHKVA=37.5 %r=0.532544 wdg=3 conn=wye bus=udt2220lv.0.2 Kv=0.120089 kva=25.0 EmergHKVA=37.5 %r=0.532544 XHL=2.4 XLT=2.4 XHT=1.6

New Transformer.tr(r:udt2232-udt2232lv) phases=1 windings=3 %loadloss=0.798816 %Noloadloss=0.37 normhkva=55.0 wdg=1 conn=wye bus=udt2232.1 Kv=7.199560000000001 kva=50.0 EmergHKVA=75.0 %r=0.266272 wdg=2 conn=wye bus=udt2232lv.1.0 Kv=0.120089 kva=50.0 EmergHKVA=75.0 %r=0.532544 wdg=3 conn=wye bus=udt2232lv.0.2 Kv=0.120089 kva=50.0 EmergHKVA=75.0 %r=0.532544 XHL=2.4 XLT=2.4 XHT=1.6

New Transformer.tr(r:udt2856-udt2856lv) phases=1 windings=3 %loadloss=0.798816 %Noloadloss=0.472 normhkva=27.5 wdg=1 conn=wye bus=udt2856.3 Kv=7.199560000000001 kva=25.0 EmergHKVA=37.5 %r=0.266272 wdg=2 conn=wye bus=udt2856lv.1.0 Kv=0.120089 kva=25.0 EmergHKVA=37.5 %r=0.532544 wdg=3 conn=wye bus=udt2856lv.0.2 Kv=0.120089 kva=25.0 EmergHKVA=37.5 %r=0.532544 XHL=2.4 XLT=2.4 XHT=1.6

New Transformer.tr(r:udt2857-udt2857lv) phases=1 windings=3 %loadloss=0.798816 %Noloadloss=0.472 normhkva=27.5 wdg=1 conn=wye bus=udt2857.1 Kv=7.199560000000001 kva=25.0 EmergHKVA=37.5 %r=0.266272 wdg=2 conn=wye bus=udt2857lv.1.0 Kv=0.120089 kva=25.0 EmergHKVA=37.5 %r=0.532544 wdg=3 conn=wye bus=udt2857lv.0.2 Kv=0.120089 kva=25.0 EmergHKVA=37.5 %r=0.532544 XHL=2.4 XLT=2.4 XHT=1.6

New Transformer.tr(r:udt2858-udt2858lv) phases=1 windings=3 %loadloss=0.798816 %Noloadloss=0.472 normhkva=27.5 wdg=1 conn=wye bus=udt2858.2 Kv=7.199560000000001 kva=25.0 EmergHKVA=37.5 %r=0.266272 wdg=2 conn=wye bus=udt2858lv.1.0 Kv=0.120089 kva=25.0 EmergHKVA=37.5 %r=0.532544 wdg=3 conn=wye bus=udt2858lv.0.2 Kv=0.120089 kva=25.0 EmergHKVA=37.5 %r=0.532544 XHL=2.4 XLT=2.4 XHT=1.6

New Transformer.tr(r:udt2859-udt2859lv) phases=1 windings=3 %loadloss=0.798816 %Noloadloss=0.472 normhkva=27.5 wdg=1 conn=wye bus=udt2859.3 Kv=7.199560000000001 kva=25.0 EmergHKVA=37.5 %r=0.266272 wdg=2 conn=wye bus=udt2859lv.1.0 Kv=0.120089 kva=25.0 EmergHKVA=37.5 %r=0.532544 wdg=3 conn=wye bus=udt2859lv.0.2 Kv=0.120089 kva=25.0 EmergHKVA=37.5 %r=0.532544 XHL=2.4 XLT=2.4 XHT=1.6

New Transformer.tr(r:udt2860-udt2860lv) phases=1 windings=3 %loadloss=0.49926 %Noloadloss=0.38 normhkva=82.5 wdg=1 conn=wye bus=udt2860.2 Kv=7.199560000000001 kva=75.0 EmergHKVA=112.5 %r=0.16642 wdg=2 conn=wye bus=udt2860lv.1.0 Kv=0.120089 kva=75.0 EmergHKVA=112.5 %r=0.33284 wdg=3 conn=wye bus=udt2860lv.0.2 Kv=0.120089 kva=75.0 EmergHKVA=112.5 %r=0.33284 XHL=2.4 XLT=2.4 XHT=1.6

New Transformer.tr(r:udt2862-udt2862lv) phases=1 windings=3 %loadloss=0.798816 %Noloadloss=0.472 normhkva=27.5 wdg=1 conn=wye bus=udt2862.3 Kv=7.199560000000001 kva=25.0 EmergHKVA=37.5 %r=0.266272 wdg=2 conn=wye bus=udt2862lv.1.0 Kv=0.120089 kva=25.0 EmergHKVA=37.5 %r=0.532544 wdg=3 conn=wye bus=udt2862lv.0.2 Kv=0.120089 kva=25.0 EmergHKVA=37.5 %r=0.532544 XHL=2.4 XLT=2.4 XHT=1.6

New Transformer.tr(r:udt2863-udt2863lv) phases=3 windings=2 %loadloss=1.61095 %Noloadloss=0.62 normhkva=110.0 wdg=1 conn=wye Kv=12.47 kva=100.0 EmergHKVA=150.0 %R=0.805475 bus=udt2863 wdg=2 conn=wye Kv=0.48 kva=100.0 EmergHKVA=150.0 %R=0.805475 bus=udt2863lv XHL=3.29

New Transformer.tr(r:udt2864-udt2864lv) phases=3 windings=2 %loadloss=1.82396 %Noloadloss=0.325 normhkva=330.0 wdg=1 conn=wye Kv=12.47 kva=300.0 EmergHKVA=450.0 %R=0.91198 bus=udt2864 wdg=2 conn=wye Kv=0.48 kva=300.0 EmergHKVA=450.0 %R=0.91198 bus=udt2864lv XHL=3.7599999999999993

New Transformer.tr(r:udt2865-udt2865lv) phases=3 windings=2 %loadloss=1.4645 %Noloadloss=0.266 normhkva=550.0 wdg=1 conn=wye Kv=12.47 kva=500.0 EmergHKVA=750.0 %R=0.73225 bus=udt2865 wdg=2 conn=wye Kv=0.48 kva=500.0 EmergHKVA=750.0 %R=0.73225 bus=udt2865lv XHL=4.36

New Transformer.tr(r:udt2866-udt2866lv) phases=3 windings=2 %loadloss=1.74408 %Noloadloss=0.6 normhkva=82.5 wdg=1 conn=wye Kv=12.47 kva=75.0 EmergHKVA=112.5 %R=0.87204 bus=udt2866 wdg=2 conn=wye Kv=0.48 kva=75.0 EmergHKVA=112.5 %R=0.87204 bus=udt2866lv XHL=3.2400000000000007

New Transformer.tr(r:udt2867-udt2867lv) phases=1 windings=3 %loadloss=0.798816 %Noloadloss=0.472 normhkva=27.5 wdg=1 conn=wye bus=udt2867.1 Kv=7.199560000000001 kva=25.0 EmergHKVA=37.5 %r=0.266272 wdg=2 conn=wye bus=udt2867lv.1.0 Kv=0.120089 kva=25.0 EmergHKVA=37.5 %r=0.532544 wdg=3 conn=wye bus=udt2867lv.0.2 Kv=0.120089 kva=25.0 EmergHKVA=37.5 %r=0.532544 XHL=2.4 XLT=2.4 XHT=1.6

New Transformer.tr(r:udt2868-udt2868lv) phases=1 windings=3 %loadloss=0.798816 %Noloadloss=0.472 normhkva=27.5 wdg=1 conn=wye bus=udt2868.1 Kv=7.199560000000001 kva=25.0 EmergHKVA=37.5 %r=0.266272 wdg=2 conn=wye bus=udt2868lv.1.0 Kv=0.120089 kva=25.0 EmergHKVA=37.5 %r=0.532544 wdg=3 conn=wye bus=udt2868lv.0.2 Kv=0.120089 kva=25.0 EmergHKVA=37.5 %r=0.532544 XHL=2.4 XLT=2.4 XHT=1.6

New Transformer.tr(r:udt2869-udt2869lv) phases=1 windings=3 %loadloss=0.798816 %Noloadloss=0.472 normhkva=27.5 wdg=1 conn=wye bus=udt2869.1 Kv=7.199560000000001 kva=25.0 EmergHKVA=37.5 %r=0.266272 wdg=2 conn=wye bus=udt2869lv.1.0 Kv=0.120089 kva=25.0 EmergHKVA=37.5 %r=0.532544 wdg=3 conn=wye bus=udt2869lv.0.2 Kv=0.120089 kva=25.0 EmergHKVA=37.5 %r=0.532544 XHL=2.4 XLT=2.4 XHT=1.6

New Transformer.tr(r:udt2870-udt2870lv) phases=1 windings=3 %loadloss=0.798816 %Noloadloss=0.37 normhkva=55.0 wdg=1 conn=wye bus=udt2870.2 Kv=7.199560000000001 kva=50.0 EmergHKVA=75.0 %r=0.266272 wdg=2 conn=wye bus=udt2870lv.1.0 Kv=0.120089 kva=50.0 EmergHKVA=75.0 %r=0.532544 wdg=3 conn=wye bus=udt2870lv.0.2 Kv=0.120089 kva=50.0 EmergHKVA=75.0 %r=0.532544 XHL=2.4 XLT=2.4 XHT=1.6
