New Line.l(r:p1ulv4258-udt1883lv) Units=km Length=0.0198344 bus1=udt1883lv.1.2 bus2=p1ulv4258.1.2 switch=n enabled=y phases=2 Linecode=1P_UG_AL_1/0_Brenau_0_416_0_2_2

New Line.l(r:p1ulv30623-udt1883lv) Units=km Length=0.0163042 bus1=udt1883lv.1.2 bus2=p1ulv30623.1.2 switch=n enabled=y phases=2 Linecode=1P_UG_AL_1/0_Brenau_0_416_0_2_2

New Line.l(r:p1ulv4257-udm7559) Units=km Length=0.020253 bus1=udm7559.1.2 bus2=p1ulv4257.1.2 switch=n enabled=y phases=2 Linecode=1P_UG_AL_1/0_Brenau_0_416_0_2_2

New Line.l(r:p1ulv27375-udm7559) Units=km Length=0.0170975 bus1=udm7559.1.2 bus2=p1ulv27375.1.2 switch=n enabled=y phases=2 Linecode=1P_UG_AL_1/0_Brenau_0_416_0_2_2

New Line.l(r:udm7559-udt1883lv) Units=km Length=0.00932091 bus1=udt1883lv.1.2 bus2=udm7559.1.2 switch=n enabled=y phases=2 Linecode=1P_UG_AL_1/0_Brenau_0_416_0_2_2

New Line.l(r:p1ulv28788-udm7562) Units=km Length=0.0161063 bus1=udm7562.1.2 bus2=p1ulv28788.1.2 switch=n enabled=y phases=2 Linecode=1P_UG_AL_1/0_Brenau_0_416_0_2_2

New Line.l(r:p1ulv50740-udm7568) Units=km Length=0.019242 bus1=udm7568.1.2 bus2=p1ulv50740.1.2 switch=n enabled=y phases=2 Linecode=1P_UG_AL_1/0_Brenau_0_416_0_2_2

New Line.l(r:udm7562-udm7568) Units=km Length=0.00932091 bus1=udm7562.1.2 bus2=udm7568.1.2 switch=n enabled=y phases=2 Linecode=1P_UG_AL_1/0_Brenau_0_416_0_2_2

New Line.l(r:udm7562-udt1883lv) Units=km Length=0.0279527 bus1=udt1883lv.1.2 bus2=udm7562.1.2 switch=n enabled=y phases=2 Linecode=1P_UG_AL_1/0_Brenau_0_416_0_2_2

New Line.l(r:p1ulv49129-udm7567) Units=km Length=0.0213662 bus1=udm7567.1.2 bus2=p1ulv49129.1.2 switch=n enabled=y phases=2 Linecode=1P_UG_AL_1/0_Brenau_0_416_0_2_2

New Line.l(r:p1ulv44424-udm7565) Units=km Length=0.0204199 bus1=udm7565.1.2 bus2=p1ulv44424.1.2 switch=n enabled=y phases=2 Linecode=1P_UG_AL_1/0_Brenau_0_416_0_2_2

New Line.l(r:p1ulv48920-udm7565) Units=km Length=0.0166338 bus1=udm7565.1.2 bus2=p1ulv48920.1.2 switch=n enabled=y phases=2 Linecode=1P_UG_AL_1/0_Brenau_0_416_0_2_2

New Line.l(r:p1ulv33823-udm7564) Units=km Length=0.015591100000000002 bus1=udm7564.1.2 bus2=p1ulv33823.1.2 switch=n enabled=y phases=2 Linecode=1P_UG_AL_1/0_Brenau_0_416_0_2_2

New Line.l(r:udm7564-udm7565) Units=km Length=0.00931091 bus1=udm7565.1.2 bus2=udm7564.1.2 switch=n enabled=y phases=2 Linecode=1P_UG_AL_1/0_Brenau_0_416_0_2_2

New Line.l(r:udm7565-udm7567) Units=km Length=0.0186418 bus1=udm7567.1.2 bus2=udm7565.1.2 switch=n enabled=y phases=2 Linecode=1P_UG_AL_1/0_Brenau_0_416_0_2_2

New Line.l(r:udm7567-udt1883lv) Units=km Length=0.00931091 bus1=udt1883lv.1.2 bus2=udm7567.1.2 switch=n enabled=y phases=2 Linecode=1P_UG_AL_4/0_Sweetbriar_0_416_0_2_2

New Line.l(r:p1ulv4259-udm7569) Units=km Length=0.0189921 bus1=udm7569.1.2 bus2=p1ulv4259.1.2 switch=n enabled=y phases=2 Linecode=1P_UG_AL_1/0_Brenau_0_416_0_2_2

New Line.l(r:p1ulv44046-udm7571) Units=km Length=0.019043 bus1=udm7571.1.2 bus2=p1ulv44046.1.2 switch=n enabled=y phases=2 Linecode=1P_UG_AL_1/0_Brenau_0_416_0_2_2

New Line.l(r:udm7569-udm7571) Units=km Length=0.0161868 bus1=udm7569.1.2 bus2=udm7571.1.2 switch=n enabled=y phases=2 Linecode=1P_UG_AL_1/0_Brenau_0_416_0_2_2

New Line.l(r:udm7569-udt1884lv) Units=km Length=0.00810355 bus1=udt1884lv.1.2 bus2=udm7569.1.2 switch=n enabled=y phases=2 Linecode=1P_UG_AL_1/0_Brenau_0_416_0_2_2

New Line.l(r:p1ulv40801-udm7570) Units=km Length=0.0202225 bus1=udm7570.1.2 bus2=p1ulv40801.1.2 switch=n enabled=y phases=2 Linecode=1P_UG_AL_1/0_Brenau_0_416_0_2_2

New Line.l(r:udm7570-udt1884lv) Units=km Length=0.0274558 bus1=udt1884lv.1.2 bus2=udm7570.1.2 switch=n enabled=y phases=2 Linecode=1P_UG_AL_1/0_Brenau_0_416_0_2_2

New Line.l(r:p1ulv30381-udt1885lv) Units=km Length=0.020886100000000005 bus1=udt1885lv.1.2 bus2=p1ulv30381.1.2 switch=n enabled=y phases=2 Linecode=1P_UG_AL_1/0_Brenau_0_416_0_2_2

New Line.l(r:p1ulv29427-udm7573) Units=km Length=0.0206727 bus1=udm7573.1.2 bus2=p1ulv29427.1.2 switch=n enabled=y phases=2 Linecode=1P_UG_AL_1/0_Brenau_0_416_0_2_2

New Line.l(r:p1ulv39327-udm7573) Units=km Length=0.0207466 bus1=udm7573.1.2 bus2=p1ulv39327.1.2 switch=n enabled=y phases=2 Linecode=1P_UG_AL_1/0_Brenau_0_416_0_2_2

New Line.l(r:udm7573-udt1885lv) Units=km Length=0.0190804 bus1=udt1885lv.1.2 bus2=udm7573.1.2 switch=n enabled=y phases=2 Linecode=1P_UG_AL_1/0_Brenau_0_416_0_2_2

New Line.l(r:p1ulv32158-udm7575) Units=km Length=0.0575814 bus1=udm7575.1.2 bus2=p1ulv32158.1.2 switch=n enabled=y phases=2 Linecode=1P_UG_AL_1/0_Brenau_0_416_0_2_2

New Line.l(r:p1ulv37189-udm7575) Units=km Length=0.024124 bus1=udm7575.1.2 bus2=p1ulv37189.1.2 switch=n enabled=y phases=2 Linecode=1P_UG_AL_1/0_Brenau_0_416_0_2_2

New Line.l(r:p1ulv4261-udm7572) Units=km Length=0.0208632 bus1=udm7572.1.2 bus2=p1ulv4261.1.2 switch=n enabled=y phases=2 Linecode=1P_UG_AL_1/0_Brenau_0_416_0_2_2

New Line.l(r:p1ulv36825-udm7572) Units=km Length=0.0221399 bus1=udm7572.1.2 bus2=p1ulv36825.1.2 switch=n enabled=y phases=2 Linecode=1P_UG_AL_1/0_Brenau_0_416_0_2_2

New Line.l(r:udm7572-udm7575) Units=km Length=0.0190804 bus1=udm7575.1.2 bus2=udm7572.1.2 switch=n enabled=y phases=2 Linecode=1P_UG_AL_1/0_Brenau_0_416_0_2_2

New Line.l(r:udm7575-udt1885lv) Units=km Length=0.00954019 bus1=udt1885lv.1.2 bus2=udm7575.1.2 switch=n enabled=y phases=2 Linecode=1P_UG_AL_4/0_Sweetbriar_0_416_0_2_2

New Line.l(r:p1ulv4301-udt1887lv) Units=km Length=0.0199199 bus1=udt1887lv.1.2 bus2=p1ulv4301.1.2 switch=n enabled=y phases=2 Linecode=1P_OH_AL_2/0_Rucina_0_416_0_2_2

New Line.l(r:p1ulv26404-udt1887lv) Units=km Length=0.0360277 bus1=udt1887lv.1.2 bus2=p1ulv26404.1.2 switch=n enabled=y phases=2 Linecode=1P_OH_AL_4/0_Zuzara_0_416_0_2_2

New Line.l(r:p1ulv44223-udt1887lv) Units=km Length=0.0208159 bus1=udt1887lv.1.2 bus2=p1ulv44223.1.2 switch=n enabled=y phases=2 Linecode=1P_OH_AL_2/0_Rucina_0_416_0_2_2

New Line.l(r:p1ulv4263-udm7587) Units=km Length=0.0194423 bus1=udm7587.1.2 bus2=p1ulv4263.1.2 switch=n enabled=y phases=2 Linecode=1P_OH_AL_2/0_Rucina_0_416_0_2_2

New Line.l(r:p1ulv4300-udm7589) Units=km Length=0.014304 bus1=udm7589.1.2 bus2=p1ulv4300.1.2 switch=n enabled=y phases=2 Linecode=1P_OH_AL_2/0_Rucina_0_416_0_2_2

New Line.l(r:p1ulv42625-udm7589) Units=km Length=0.0196333 bus1=udm7589.1.2 bus2=p1ulv42625.1.2 switch=n enabled=y phases=2 Linecode=1P_OH_AL_2/0_Rucina_0_416_0_2_2

New Line.l(r:udm7587-udm7589) Units=km Length=0.018180000000000005 bus1=udm7587.1.2 bus2=udm7589.1.2 switch=n enabled=y phases=2 Linecode=1P_OH_AL_2/0_Rucina_0_416_0_2_2

New Line.l(r:udm7587-udt1887lv) Units=km Length=0.01819 bus1=udt1887lv.1.2 bus2=udm7587.1.2 switch=n enabled=y phases=2 Linecode=1P_OH_AL_2/0_Rucina_0_416_0_2_2

New Line.l(r:p1ulv4298-udm7588) Units=km Length=0.0200443 bus1=udm7588.1.2 bus2=p1ulv4298.1.2 switch=n enabled=y phases=2 Linecode=1P_OH_AL_2/0_Rucina_0_416_0_2_2

New Line.l(r:p1ulv39396-udm7592) Units=km Length=0.0207397 bus1=udm7592.1.2 bus2=p1ulv39396.1.2 switch=n enabled=y phases=2 Linecode=1P_OH_AL_2/0_Rucina_0_416_0_2_2

New Line.l(r:udm7588-udm7592) Units=km Length=0.018180000000000005 bus1=udm7588.1.2 bus2=udm7592.1.2 switch=n enabled=y phases=2 Linecode=1P_OH_AL_2/0_Rucina_0_416_0_2_2

New Line.l(r:udm7588-udt1887lv) Units=km Length=0.01819 bus1=udt1887lv.1.2 bus2=udm7588.1.2 switch=n enabled=y phases=2 Linecode=1P_OH_AL_2/0_Rucina_0_416_0_2_2

New Line.l(r:p1ulv4265-udt1888lv) Units=km Length=0.017631600000000004 bus1=udt1888lv.1.2 bus2=p1ulv4265.1.2 switch=n enabled=y phases=2 Linecode=1P_OH_AL_2/0_Rucina_0_416_0_2_2

New Line.l(r:p1ulv4287-udt1888lv) Units=km Length=0.0188769 bus1=udt1888lv.1.2 bus2=p1ulv4287.1.2 switch=n enabled=y phases=2 Linecode=1P_OH_AL_2/0_Rucina_0_416_0_2_2

New Line.l(r:p1ulv4267-udt1890lv) Units=km Length=0.0230812 bus1=udt1890lv.1.2 bus2=p1ulv4267.1.2 switch=n enabled=y phases=2 Linecode=1P_OH_AL_2/0_Rucina_0_416_0_2_2

New Line.l(r:p1ulv4279-udt1890lv) Units=km Length=0.0189185 bus1=udt1890lv.1.2 bus2=p1ulv4279.1.2 switch=n enabled=y phases=2 Linecode=1P_OH_AL_2/0_Rucina_0_416_0_2_2

New Line.l(r:p1ulv4293-udm7604) Units=km Length=0.0235834 bus1=udm7604.1.2 bus2=p1ulv4293.1.2 switch=n enabled=y phases=2 Linecode=1P_OH_AL_2/0_Rucina_0_416_0_2_2

New Line.l(r:p1ulv27651-udm7604) Units=km Length=0.0214386 bus1=udm7604.1.2 bus2=p1ulv27651.1.2 switch=n enabled=y phases=2 Linecode=1P_OH_AL_2/0_Rucina_0_416_0_2_2

New Line.l(r:p1ulv47460-udm7604) Units=km Length=0.016721 bus1=udm7604.1.2 bus2=p1ulv47460.1.2 switch=n enabled=y phases=2 Linecode=1P_OH_AL_2/0_Rucina_0_416_0_2_2

New Line.l(r:p1ulv42388-udm7607) Units=km Length=0.0173116 bus1=udm7607.1.2 bus2=p1ulv42388.1.2 switch=n enabled=y phases=2 Linecode=1P_OH_AL_2/0_Rucina_0_416_0_2_2

New Line.l(r:p1ulv49518-udm7607) Units=km Length=0.0191029 bus1=udm7607.1.2 bus2=p1ulv49518.1.2 switch=n enabled=y phases=2 Linecode=1P_OH_AL_2/0_Rucina_0_416_0_2_2

New Line.l(r:udm7604-udm7607) Units=km Length=0.018180000000000005 bus1=udm7604.1.2 bus2=udm7607.1.2 switch=n enabled=y phases=2 Linecode=1P_OH_AL_2/0_Rucina_0_416_0_2_2

New Line.l(r:udm7604-udt1890lv) Units=km Length=0.01819 bus1=udt1890lv.1.2 bus2=udm7604.1.2 switch=n enabled=y phases=2 Linecode=1P_OH_AL_2/0_Rucina_0_416_0_2_2

New Line.l(r:p1ulv41181-udm7606) Units=km Length=0.0231664 bus1=udm7606.1.2 bus2=p1ulv41181.1.2 switch=n enabled=y phases=2 Linecode=1P_OH_AL_2/0_Rucina_0_416_0_2_2

New Line.l(r:p1ulv4289-udm7603) Units=km Length=0.0201695 bus1=udm7603.1.2 bus2=p1ulv4289.1.2 switch=n enabled=y phases=2 Linecode=1P_UG_AL_1/0_Brenau_0_416_0_2_2

New Line.l(r:p1ulv43843-udm7608) Units=km Length=0.00912338 bus1=udm7608.1.2 bus2=p1ulv43843.1.2 switch=n enabled=y phases=2 Linecode=1P_UG_AL_1/0_Brenau_0_416_0_2_2

New Line.l(r:udm7603-udm7608) Units=km Length=0.0283809 bus1=udm7603.1.2 bus2=udm7608.1.2 switch=n enabled=y phases=2 Linecode=1P_UG_AL_1/0_Brenau_0_416_0_2_2

New Line.l(r:udm7603-udm7606) Units=km Length=0.027510900000000005 bus1=udm7606.1.2 bus2=udm7603.1.2 switch=n enabled=y phases=2 Linecode=1P_OH_AL_4/0_Zuzara_0_416_0_2_2

New Line.l(r:udm7606-udt1890lv) Units=km Length=0.018180000000000005 bus1=udt1890lv.1.2 bus2=udm7606.1.2 switch=n enabled=y phases=2 Linecode=1P_OH_AL_2/0_Rucina_0_416_0_2_2

New Line.l(r:p1ulv38132-udt1891lv) Units=km Length=0.0157507 bus1=udt1891lv.1.2 bus2=p1ulv38132.1.2 switch=n enabled=y phases=2 Linecode=1P_OH_AL_2/0_Rucina_0_416_0_2_2

New Line.l(r:p1ulv42900-udt1891lv) Units=km Length=0.023096000000000002 bus1=udt1891lv.1.2 bus2=p1ulv42900.1.2 switch=n enabled=y phases=2 Linecode=1P_OH_AL_2/0_Rucina_0_416_0_2_2

New Line.l(r:p1ulv45742-udt1891lv) Units=km Length=0.0306365 bus1=udt1891lv.1.2 bus2=p1ulv45742.1.2 switch=n enabled=y phases=2 Linecode=1P_OH_AL_4/0_Zuzara_0_416_0_2_2

New Line.l(r:p1ulv4269-udm7611) Units=km Length=0.0432265 bus1=udm7611.1.2 bus2=p1ulv4269.1.2 switch=n enabled=y phases=2 Linecode=1P_OH_AL_4/0_Zuzara_0_416_0_2_2

New Line.l(r:udm7611-udt1891lv) Units=km Length=0.0176377 bus1=udt1891lv.1.2 bus2=udm7611.1.2 switch=n enabled=y phases=2 Linecode=1P_OH_AL_2/0_Rucina_0_416_0_2_2

New Line.l(r:p1ulv4270-udt1892lv) Units=km Length=0.0236113 bus1=udt1892lv.1.2 bus2=p1ulv4270.1.2 switch=n enabled=y phases=2 Linecode=1P_UG_AL_1/0_Brenau_0_416_0_2_2

New Line.l(r:p1ulv4272-udm7616) Units=km Length=0.026487000000000004 bus1=udm7616.1.2 bus2=p1ulv4272.1.2 switch=n enabled=y phases=2 Linecode=1P_UG_AL_1/0_Brenau_0_416_0_2_2

New Line.l(r:udm7616-udt1892lv) Units=km Length=0.0338282 bus1=udt1892lv.1.2 bus2=udm7616.1.2 switch=n enabled=y phases=2 Linecode=1P_UG_AL_1/0_Brenau_0_416_0_2_2

New Line.l(r:p1ulv31783-udm7617) Units=km Length=0.0228537 bus1=udm7617.1.2 bus2=p1ulv31783.1.2 switch=n enabled=y phases=2 Linecode=1P_UG_AL_1/0_Brenau_0_416_0_2_2

New Line.l(r:udm7617-udt1892lv) Units=km Length=0.019060000000000004 bus1=udt1892lv.1.2 bus2=udm7617.1.2 switch=n enabled=y phases=2 Linecode=1P_UG_AL_1/0_Brenau_0_416_0_2_2

New Line.l(r:p1ulv4306-udm7619) Units=km Length=0.0204235 bus1=udm7619.1.2 bus2=p1ulv4306.1.2 switch=n enabled=y phases=2 Linecode=1P_OH_AL_2/0_Rucina_0_416_0_2_2

New Line.l(r:p1ulv4271-udm7618) Units=km Length=0.0238333 bus1=udm7618.1.2 bus2=p1ulv4271.1.2 switch=n enabled=y phases=2 Linecode=1P_OH_AL_2/0_Rucina_0_416_0_2_2

New Line.l(r:udm7618-udm7619) Units=km Length=0.0170804 bus1=udm7619.1.2 bus2=udm7618.1.2 switch=n enabled=y phases=2 Linecode=1P_OH_AL_2/0_Rucina_0_416_0_2_2

New Line.l(r:udm7619-udt1893lv) Units=km Length=0.0119621 bus1=udt1893lv.1.2 bus2=udm7619.1.2 switch=n enabled=y phases=2 Linecode=1P_OH_AL_2/0_Rucina_0_416_0_2_2

New Line.l(r:p1ulv26264-udm7620) Units=km Length=0.015410200000000002 bus1=udm7620.1.2 bus2=p1ulv26264.1.2 switch=n enabled=y phases=2 Linecode=1P_OH_AL_2/0_Rucina_0_416_0_2_2

New Line.l(r:p1ulv49165-udm7620) Units=km Length=0.0142753 bus1=udm7620.1.2 bus2=p1ulv49165.1.2 switch=n enabled=y phases=2 Linecode=1P_OH_AL_2/0_Rucina_0_416_0_2_2

New Line.l(r:udm7620-udt1893lv) Units=km Length=0.0119621 bus1=udt1893lv.1.2 bus2=udm7620.1.2 switch=n enabled=y phases=2 Linecode=1P_OH_AL_2/0_Rucina_0_416_0_2_2

New Line.l(r:p1ulv47319-udt1895lv) Units=km Length=0.011854 bus1=udt1895lv.1.2 bus2=p1ulv47319.1.2 switch=n enabled=y phases=2 Linecode=1P_OH_AL_2/0_Rucina_0_416_0_2_2

New Line.l(r:p1ulv4274-udm7625) Units=km Length=0.00577652 bus1=udm7625.1.2 bus2=p1ulv4274.1.2 switch=n enabled=y phases=2 Linecode=1P_OH_AL_2/0_Rucina_0_416_0_2_2

New Line.l(r:udm7625-udt1895lv) Units=km Length=0.0194082 bus1=udt1895lv.1.2 bus2=udm7625.1.2 switch=n enabled=y phases=2 Linecode=1P_OH_AL_2/0_Rucina_0_416_0_2_2

New Line.l(r:p1ulv4278-udm7626) Units=km Length=0.0202093 bus1=udm7626.1.2 bus2=p1ulv4278.1.2 switch=n enabled=y phases=2 Linecode=1P_OH_AL_2/0_Rucina_0_416_0_2_2

New Line.l(r:udm7626-udt1895lv) Units=km Length=0.0448895 bus1=udt1895lv.1.2 bus2=udm7626.1.2 switch=n enabled=y phases=2 Linecode=1P_OH_AL_4/0_Zuzara_0_416_0_2_2

New Line.l(r:p1ulv42562-udt1896lv) Units=km Length=0.0204823 bus1=udt1896lv.1.2 bus2=p1ulv42562.1.2 switch=n enabled=y phases=2 Linecode=1P_UG_AL_1/0_Brenau_0_416_0_2_2

New Line.l(r:p1ulv4275-udm7628) Units=km Length=0.020431 bus1=udm7628.1.2 bus2=p1ulv4275.1.2 switch=n enabled=y phases=2 Linecode=1P_UG_AL_1/0_Brenau_0_416_0_2_2

New Line.l(r:udm7628-udt1896lv) Units=km Length=0.0361294 bus1=udt1896lv.1.2 bus2=udm7628.1.2 switch=n enabled=y phases=2 Linecode=1P_UG_AL_1/0_Brenau_0_416_0_2_2

New Line.l(r:p1ulv36619-udm7629) Units=km Length=0.018828900000000003 bus1=udm7629.1.2 bus2=p1ulv36619.1.2 switch=n enabled=y phases=2 Linecode=1P_UG_AL_1/0_Brenau_0_416_0_2_2

New Line.l(r:udm7629-udt1896lv) Units=km Length=0.0324509 bus1=udt1896lv.1.2 bus2=udm7629.1.2 switch=n enabled=y phases=2 Linecode=1P_UG_AL_1/0_Brenau_0_416_0_2_2

New Line.l(r:p1ulv4277-udt1898lv) Units=km Length=0.0253288 bus1=udt1898lv.1.2 bus2=p1ulv4277.1.2 switch=n enabled=y phases=2 Linecode=1P_UG_AL_1/0_Brenau_0_416_0_2_2

New Line.l(r:p1ulv29559-udt1898lv) Units=km Length=0.0216481 bus1=udt1898lv.1.2 bus2=p1ulv29559.1.2 switch=n enabled=y phases=2 Linecode=1P_UG_AL_1/0_Brenau_0_416_0_2_2

New Line.l(r:p1ulv4280-udm7635) Units=km Length=0.0244374 bus1=udm7635.1.2 bus2=p1ulv4280.1.2 switch=n enabled=y phases=2 Linecode=1P_UG_AL_1/0_Brenau_0_416_0_2_2

New Line.l(r:udm7635-udt1898lv) Units=km Length=0.0190726 bus1=udt1898lv.1.2 bus2=udm7635.1.2 switch=n enabled=y phases=2 Linecode=1P_UG_AL_1/0_Brenau_0_416_0_2_2

New Line.l(r:p1ulv38580-udm7637) Units=km Length=0.025468700000000004 bus1=udm7637.1.2 bus2=p1ulv38580.1.2 switch=n enabled=y phases=2 Linecode=1P_UG_AL_1/0_Brenau_0_416_0_2_2

New Line.l(r:udm7637-udt1898lv) Units=km Length=0.0190629 bus1=udt1898lv.1.2 bus2=udm7637.1.2 switch=n enabled=y phases=2 Linecode=1P_UG_AL_1/0_Brenau_0_416_0_2_2

New Line.l(r:p1ulv4290-udt1899lv) Units=km Length=0.020446700000000005 bus1=udt1899lv.1.2 bus2=p1ulv4290.1.2 switch=n enabled=y phases=2 Linecode=1P_UG_AL_1/0_Brenau_0_416_0_2_2

New Line.l(r:p1ulv4281-udm7638) Units=km Length=0.0221831 bus1=udm7638.1.2 bus2=p1ulv4281.1.2 switch=n enabled=y phases=2 Linecode=1P_UG_AL_1/0_Brenau_0_416_0_2_2

New Line.l(r:p1ulv4295-udm7638) Units=km Length=0.0166648 bus1=udm7638.1.2 bus2=p1ulv4295.1.2 switch=n enabled=y phases=2 Linecode=1P_UG_AL_1/0_Brenau_0_416_0_2_2

New Line.l(r:udm7638-udt1899lv) Units=km Length=0.00737562 bus1=udt1899lv.1.2 bus2=udm7638.1.2 switch=n enabled=y phases=2 Linecode=1P_UG_AL_1/0_Brenau_0_416_0_2_2

New Line.l(r:p1ulv4282-udm7641) Units=km Length=0.0224543 bus1=udm7641.1.2 bus2=p1ulv4282.1.2 switch=n enabled=y phases=2 Linecode=1P_UG_AL_1/0_Brenau_0_416_0_2_2

New Line.l(r:p1ulv4285-udm7642) Units=km Length=0.0234941 bus1=udm7642.1.2 bus2=p1ulv4285.1.2 switch=n enabled=y phases=2 Linecode=1P_UG_AL_1/0_Brenau_0_416_0_2_2

New Line.l(r:udm7641-udm7642) Units=km Length=0.0188887 bus1=udm7641.1.2 bus2=udm7642.1.2 switch=n enabled=y phases=2 Linecode=1P_UG_AL_1/0_Brenau_0_416_0_2_2

New Line.l(r:udm7641-udt1900lv) Units=km Length=0.00953147 bus1=udt1900lv.1.2 bus2=udm7641.1.2 switch=n enabled=y phases=2 Linecode=1P_UG_AL_1/0_Brenau_0_416_0_2_2

New Line.l(r:p1ulv37980-udm7644) Units=km Length=0.0232868 bus1=udm7644.1.2 bus2=p1ulv37980.1.2 switch=n enabled=y phases=2 Linecode=1P_UG_AL_1/0_Brenau_0_416_0_2_2

New Line.l(r:p1ulv26331-udm7643) Units=km Length=0.0229362 bus1=udm7643.1.2 bus2=p1ulv26331.1.2 switch=n enabled=y phases=2 Linecode=1P_UG_AL_1/0_Brenau_0_416_0_2_2

New Line.l(r:udm7643-udm7644) Units=km Length=0.0190726 bus1=udm7644.1.2 bus2=udm7643.1.2 switch=n enabled=y phases=2 Linecode=1P_UG_AL_1/0_Brenau_0_416_0_2_2

New Line.l(r:udm7644-udt1900lv) Units=km Length=0.00953147 bus1=udt1900lv.1.2 bus2=udm7644.1.2 switch=n enabled=y phases=2 Linecode=1P_UG_AL_1/0_Brenau_0_416_0_2_2

New Line.l(r:p1ulv4284-udt1901lv) Units=km Length=0.0178607 bus1=udt1901lv.1.2 bus2=p1ulv4284.1.2 switch=n enabled=y phases=2 Linecode=1P_OH_AL_2/0_Rucina_0_416_0_2_2

New Line.l(r:p1ulv47114-udt1901lv) Units=km Length=0.013668300000000001 bus1=udt1901lv.1.2 bus2=p1ulv47114.1.2 switch=n enabled=y phases=2 Linecode=1P_OH_AL_2/0_Rucina_0_416_0_2_2

New Line.l(r:p1ulv4291-udm7646) Units=km Length=0.0174619 bus1=udm7646.1.2 bus2=p1ulv4291.1.2 switch=n enabled=y phases=2 Linecode=1P_OH_AL_2/0_Rucina_0_416_0_2_2

New Line.l(r:udm7646-udt1901lv) Units=km Length=0.0191382 bus1=udt1901lv.1.2 bus2=udm7646.1.2 switch=n enabled=y phases=2 Linecode=1P_OH_AL_2/0_Rucina_0_416_0_2_2

New Line.l(r:p1ulv37909-udm7647) Units=km Length=0.0193353 bus1=udm7647.1.2 bus2=p1ulv37909.1.2 switch=n enabled=y phases=2 Linecode=1P_OH_AL_2/0_Rucina_0_416_0_2_2

New Line.l(r:udm7647-udt1901lv) Units=km Length=0.0191415 bus1=udt1901lv.1.2 bus2=udm7647.1.2 switch=n enabled=y phases=2 Linecode=1P_OH_AL_2/0_Rucina_0_416_0_2_2

New Line.l(r:p1ulv4288-udt1902lv) Units=km Length=0.0351896 bus1=udt1902lv.1.2 bus2=p1ulv4288.1.2 switch=n enabled=y phases=2 Linecode=1P_OH_AL_4/0_Zuzara_0_416_0_2_2

New Line.l(r:p1ulv4292-udm7650) Units=km Length=0.0376439 bus1=udm7650.1.2 bus2=p1ulv4292.1.2 switch=n enabled=y phases=2 Linecode=1P_OH_AL_4/0_Zuzara_0_416_0_2_2

New Line.l(r:udm7650-udt1902lv) Units=km Length=0.019465400000000004 bus1=udt1902lv.1.2 bus2=udm7650.1.2 switch=n enabled=y phases=2 Linecode=1P_OH_AL_2/0_Rucina_0_416_0_2_2

New Line.l(r:p1ulv36402-udm7651) Units=km Length=0.0351763 bus1=udm7651.1.2 bus2=p1ulv36402.1.2 switch=n enabled=y phases=2 Linecode=1P_UG_AL_1/0_Brenau_0_416_0_2_2

New Line.l(r:p1ulv38354-udm7652) Units=km Length=0.0353353 bus1=udm7652.1.2 bus2=p1ulv38354.1.2 switch=n enabled=y phases=2 Linecode=1P_UG_AL_1/0_Brenau_0_416_0_2_2

New Line.l(r:udm7651-udm7652) Units=km Length=0.00952517 bus1=udm7651.1.2 bus2=udm7652.1.2 switch=n enabled=y phases=2 Linecode=1P_UG_AL_1/0_Brenau_0_416_0_2_2

New Line.l(r:udm7651-udt1902lv) Units=km Length=0.019465400000000004 bus1=udt1902lv.1.2 bus2=udm7651.1.2 switch=n enabled=y phases=2 Linecode=1P_OH_AL_2/0_Rucina_0_416_0_2_2

New Line.l(r:p1ulv4302-udt1903lv) Units=km Length=0.0216395 bus1=udt1903lv.1.2 bus2=p1ulv4302.1.2 switch=n enabled=y phases=2 Linecode=1P_OH_AL_2/0_Rucina_0_416_0_2_2

New Line.l(r:p1ulv41316-udm7654) Units=km Length=0.0330129 bus1=udm7654.1.2 bus2=p1ulv41316.1.2 switch=n enabled=y phases=2 Linecode=1P_OH_AL_4/0_Zuzara_0_416_0_2_2

New Line.l(r:udm7654-udt1903lv) Units=km Length=0.0184486 bus1=udt1903lv.1.2 bus2=udm7654.1.2 switch=n enabled=y phases=2 Linecode=1P_OH_AL_2/0_Rucina_0_416_0_2_2

New Line.l(r:p1ulv45596-udm7655) Units=km Length=0.0429869 bus1=udm7655.1.2 bus2=p1ulv45596.1.2 switch=n enabled=y phases=2 Linecode=1P_OH_AL_4/0_Zuzara_0_416_0_2_2

New Line.l(r:udm7655-udt1903lv) Units=km Length=0.0192117 bus1=udt1903lv.1.2 bus2=udm7655.1.2 switch=n enabled=y phases=2 Linecode=1P_OH_AL_2/0_Rucina_0_416_0_2_2

New Line.l(r:p1ulv28070-udt1904lv) Units=km Length=0.029201 bus1=udt1904lv.1.2 bus2=p1ulv28070.1.2 switch=n enabled=y phases=2 Linecode=1P_OH_AL_4/0_Zuzara_0_416_0_2_2

New Line.l(r:p1ulv4303-udm7656) Units=km Length=0.0346279 bus1=udm7656.1.2 bus2=p1ulv4303.1.2 switch=n enabled=y phases=2 Linecode=1P_OH_AL_4/0_Zuzara_0_416_0_2_2

New Line.l(r:udm7656-udt1904lv) Units=km Length=0.018104 bus1=udt1904lv.1.2 bus2=udm7656.1.2 switch=n enabled=y phases=2 Linecode=1P_OH_AL_2/0_Rucina_0_416_0_2_2

New Line.l(r:p1ulv31719-udm7658) Units=km Length=0.018901 bus1=udm7658.1.2 bus2=p1ulv31719.1.2 switch=n enabled=y phases=2 Linecode=1P_OH_AL_2/0_Rucina_0_416_0_2_2

New Line.l(r:udm7658-udt1904lv) Units=km Length=0.0401665 bus1=udt1904lv.1.2 bus2=udm7658.1.2 switch=n enabled=y phases=2 Linecode=1P_OH_AL_4/0_Zuzara_0_416_0_2_2

New Line.l(r:p1ulv4304-udm7659) Units=km Length=0.020612 bus1=udm7659.1.2 bus2=p1ulv4304.1.2 switch=n enabled=y phases=2 Linecode=1P_OH_AL_2/0_Rucina_0_416_0_2_2

New Line.l(r:udm7659-udt1905lv) Units=km Length=0.0182422 bus1=udt1905lv.1.2 bus2=udm7659.1.2 switch=n enabled=y phases=2 Linecode=1P_OH_AL_2/0_Rucina_0_416_0_2_2

New Line.l(r:p1ulv28135-udm7660) Units=km Length=0.0199766 bus1=udm7660.1.2 bus2=p1ulv28135.1.2 switch=n enabled=y phases=2 Linecode=1P_OH_AL_2/0_Rucina_0_416_0_2_2

New Line.l(r:udm7660-udt1905lv) Units=km Length=0.0502163 bus1=udt1905lv.1.2 bus2=udm7660.1.2 switch=n enabled=y phases=2 Linecode=1P_OH_AL_4/0_Zuzara_0_416_0_2_2

New Line.l(r:p1ulv4305-udm7661) Units=km Length=0.0174786 bus1=udm7661.1.2 bus2=p1ulv4305.1.2 switch=n enabled=y phases=2 Linecode=1P_UG_AL_1/0_Brenau_0_416_0_2_2

New Line.l(r:udm7661-udt1906lv) Units=km Length=0.0411286 bus1=udt1906lv.1.2 bus2=udm7661.1.2 switch=n enabled=y phases=2 Linecode=1P_UG_AL_1/0_Brenau_0_416_0_2_2

New Line.l(r:p1ulv26475-udm7662) Units=km Length=0.0495641 bus1=udm7662.1.2 bus2=p1ulv26475.1.2 switch=n enabled=y phases=2 Linecode=1P_UG_AL_1/0_Brenau_0_416_0_2_2

New Line.l(r:p1ulv34776-udm7662) Units=km Length=0.0216871 bus1=udm7662.1.2 bus2=p1ulv34776.1.2 switch=n enabled=y phases=2 Linecode=1P_UG_AL_1/0_Brenau_0_416_0_2_2

New Line.l(r:udm7662-udt1906lv) Units=km Length=0.0169973 bus1=udt1906lv.1.2 bus2=udm7662.1.2 switch=n enabled=y phases=2 Linecode=1P_UG_AL_4/0_Sweetbriar_0_416_0_2_2

New Line.l(r:p1ulv4307-udm7664) Units=km Length=0.0504464 bus1=udm7664.1.2 bus2=p1ulv4307.1.2 switch=n enabled=y phases=2 Linecode=1P_UG_AL_1/0_Brenau_0_416_0_2_2

New Line.l(r:p1ulv35003-udm7664) Units=km Length=0.06628660000000001 bus1=udm7664.1.2 bus2=p1ulv35003.1.2 switch=n enabled=y phases=2 Linecode=1P_UG_AL_1/0_Brenau_0_416_0_2_2

New Line.l(r:udm7664-udt1907lv) Units=km Length=0.00755262 bus1=udt1907lv.1.2 bus2=udm7664.1.2 switch=n enabled=y phases=2 Linecode=1P_UG_AL_1/0_Brenau_0_416_0_2_2

New Line.l(r:p1ulv4323-udm7665) Units=km Length=0.0169621 bus1=udm7665.1.2 bus2=p1ulv4323.1.2 switch=n enabled=y phases=2 Linecode=1P_UG_AL_1/0_Brenau_0_416_0_2_2

New Line.l(r:udm7665-udt1907lv) Units=km Length=0.0324426 bus1=udt1907lv.1.2 bus2=udm7665.1.2 switch=n enabled=y phases=2 Linecode=1P_UG_AL_1/0_Brenau_0_416_0_2_2

New Line.l(r:p1ulv28582-udt1908lv) Units=km Length=0.03504340000000001 bus1=udt1908lv.1.2 bus2=p1ulv28582.1.2 switch=n enabled=y phases=2 Linecode=1P_OH_AL_4/0_Zuzara_0_416_0_2_2

New Line.l(r:p1ulv4308-udm7667) Units=km Length=0.026431000000000003 bus1=udm7667.1.2 bus2=p1ulv4308.1.2 switch=n enabled=y phases=2 Linecode=1P_OH_AL_2/0_Rucina_0_416_0_2_2

New Line.l(r:udm7667-udt1908lv) Units=km Length=0.0422204 bus1=udt1908lv.1.2 bus2=udm7667.1.2 switch=n enabled=y phases=2 Linecode=1P_OH_AL_4/0_Zuzara_0_416_0_2_2

New Line.l(r:p1ulv28203-udm7668) Units=km Length=0.0280306 bus1=udm7668.1.2 bus2=p1ulv28203.1.2 switch=n enabled=y phases=2 Linecode=1P_OH_AL_4/0_Zuzara_0_416_0_2_2

New Line.l(r:udm7668-udt1908lv) Units=km Length=0.03387 bus1=udt1908lv.1.2 bus2=udm7668.1.2 switch=n enabled=y phases=2 Linecode=1P_OH_AL_4/0_Zuzara_0_416_0_2_2

New Line.l(r:p1ulv4309-udt1909lv) Units=km Length=0.014478100000000002 bus1=udt1909lv.1.2 bus2=p1ulv4309.1.2 switch=n enabled=y phases=2 Linecode=1P_OH_AL_2/0_Rucina_0_416_0_2_2

New Line.l(r:p1ulv33572-udt1910lv) Units=km Length=0.0329296 bus1=udt1910lv.1.2 bus2=p1ulv33572.1.2 switch=n enabled=y phases=2 Linecode=1P_UG_AL_1/0_Brenau_0_416_0_2_2

New Line.l(r:p1ulv4310-udm7671) Units=km Length=0.0326653 bus1=udm7671.1.2 bus2=p1ulv4310.1.2 switch=n enabled=y phases=2 Linecode=1P_UG_AL_1/0_Brenau_0_416_0_2_2

New Line.l(r:p1ulv32033-udm7673) Units=km Length=0.0272496 bus1=udm7673.1.2 bus2=p1ulv32033.1.2 switch=n enabled=y phases=2 Linecode=1P_UG_AL_1/0_Brenau_0_416_0_2_2

New Line.l(r:udm7671-udm7673) Units=km Length=0.019831000000000005 bus1=udm7671.1.2 bus2=udm7673.1.2 switch=n enabled=y phases=2 Linecode=1P_UG_AL_1/0_Brenau_0_416_0_2_2

New Line.l(r:udm7671-udt1910lv) Units=km Length=0.00992029 bus1=udt1910lv.1.2 bus2=udm7671.1.2 switch=n enabled=y phases=2 Linecode=1P_UG_AL_4/0_Sweetbriar_0_416_0_2_2

New Line.l(r:p1ulv49507-udm7675) Units=km Length=0.0147432 bus1=udm7675.1.2 bus2=p1ulv49507.1.2 switch=n enabled=y phases=2 Linecode=1P_UG_AL_1/0_Brenau_0_416_0_2_2

New Line.l(r:p1ulv27067-udm7672) Units=km Length=0.0332862 bus1=udm7672.1.2 bus2=p1ulv27067.1.2 switch=n enabled=y phases=2 Linecode=1P_UG_AL_1/0_Brenau_0_416_0_2_2

New Line.l(r:udm7672-udm7675) Units=km Length=0.00992029 bus1=udm7675.1.2 bus2=udm7672.1.2 switch=n enabled=y phases=2 Linecode=1P_UG_AL_1/0_Brenau_0_416_0_2_2

New Line.l(r:udm7675-udt1910lv) Units=km Length=0.00992029 bus1=udt1910lv.1.2 bus2=udm7675.1.2 switch=n enabled=y phases=2 Linecode=1P_UG_AL_1/0_Brenau_0_416_0_2_2

New Line.l(r:p1ulv4311-udm7676) Units=km Length=0.013721300000000002 bus1=udm7676.1.2 bus2=p1ulv4311.1.2 switch=n enabled=y phases=2 Linecode=1P_UG_AL_1/0_Brenau_0_416_0_2_2

New Line.l(r:p1ulv27313-udm7678) Units=km Length=0.0176058 bus1=udm7678.1.2 bus2=p1ulv27313.1.2 switch=n enabled=y phases=2 Linecode=1P_UG_AL_1/0_Brenau_0_416_0_2_2

New Line.l(r:p1ulv47386-udm7681) Units=km Length=0.0193863 bus1=udm7681.1.2 bus2=p1ulv47386.1.2 switch=n enabled=y phases=2 Linecode=1P_UG_AL_1/0_Brenau_0_416_0_2_2

New Line.l(r:udm7678-udm7681) Units=km Length=0.0405256 bus1=udm7678.1.2 bus2=udm7681.1.2 switch=n enabled=y phases=2 Linecode=1P_UG_AL_1/0_Brenau_0_416_0_2_2

New Line.l(r:udm7676-udm7678) Units=km Length=0.0547038 bus1=udm7676.1.2 bus2=udm7678.1.2 switch=n enabled=y phases=2 Linecode=1P_UG_AL_2/0_Converse_0_416_0_2_2

New Line.l(r:p1ulv33600-udm7679) Units=km Length=0.027897300000000003 bus1=udm7679.1.2 bus2=p1ulv33600.1.2 switch=n enabled=y phases=2 Linecode=1P_UG_AL_1/0_Brenau_0_416_0_2_2

New Line.l(r:udm7676-udm7679) Units=km Length=0.047545 bus1=udm7676.1.2 bus2=udm7679.1.2 switch=n enabled=y phases=2 Linecode=1P_UG_AL_1/0_Brenau_0_416_0_2_2

New Line.l(r:udm7676-udt1911lv) Units=km Length=0.00936259 bus1=udt1911lv.1.2 bus2=udm7676.1.2 switch=n enabled=y phases=2 Linecode=1P_UG_AL_4/0_Sweetbriar_0_416_0_2_2

New Line.l(r:p1ulv38200-udm7680) Units=km Length=0.0138675 bus1=udm7680.1.2 bus2=p1ulv38200.1.2 switch=n enabled=y phases=2 Linecode=1P_UG_AL_1/0_Brenau_0_416_0_2_2

New Line.l(r:p1ulv4312-udm7677) Units=km Length=0.01886 bus1=udm7677.1.2 bus2=p1ulv4312.1.2 switch=n enabled=y phases=2 Linecode=1P_UG_AL_1/0_Brenau_0_416_0_2_2

New Line.l(r:udm7677-udm7680) Units=km Length=0.00936259 bus1=udm7680.1.2 bus2=udm7677.1.2 switch=n enabled=y phases=2 Linecode=1P_UG_AL_1/0_Brenau_0_416_0_2_2

New Line.l(r:udm7680-udt1911lv) Units=km Length=0.00935259 bus1=udt1911lv.1.2 bus2=udm7680.1.2 switch=n enabled=y phases=2 Linecode=1P_UG_AL_1/0_Brenau_0_416_0_2_2

New Line.l(r:p1ulv4313-udm7682) Units=km Length=0.0192368 bus1=udm7682.1.2 bus2=p1ulv4313.1.2 switch=n enabled=y phases=2 Linecode=1P_OH_AL_2/0_Rucina_0_416_0_2_2

New Line.l(r:udm7682-udt1912lv) Units=km Length=0.0623637 bus1=udt1912lv.1.2 bus2=udm7682.1.2 switch=n enabled=y phases=2 Linecode=1P_OH_AL_4/0_Zuzara_0_416_0_2_2

New Line.l(r:p1ulv33571-udm7683) Units=km Length=0.022147800000000002 bus1=udm7683.1.2 bus2=p1ulv33571.1.2 switch=n enabled=y phases=2 Linecode=1P_UG_AL_2/0_Converse_0_416_0_2_2

New Line.l(r:p1ulv36757-udm7683) Units=km Length=0.037147 bus1=udm7683.1.2 bus2=p1ulv36757.1.2 switch=n enabled=y phases=2 Linecode=1P_UG_AL_1/0_Brenau_0_416_0_2_2

New Line.l(r:udm7683-udt1912lv) Units=km Length=0.0159974 bus1=udt1912lv.1.2 bus2=udm7683.1.2 switch=n enabled=y phases=2 Linecode=1P_OH_AL_2/0_Rucina_0_416_0_2_2

New Line.l(r:p1ulv4314-udm7685) Units=km Length=0.0147639 bus1=udm7685.1.2 bus2=p1ulv4314.1.2 switch=n enabled=y phases=2 Linecode=1P_OH_AL_2/0_Rucina_0_416_0_2_2

New Line.l(r:udm7685-udt1913lv) Units=km Length=0.019835700000000005 bus1=udt1913lv.1.2 bus2=udm7685.1.2 switch=n enabled=y phases=2 Linecode=1P_OH_AL_2/0_Rucina_0_416_0_2_2

New Line.l(r:p1ulv28414-udm7686) Units=km Length=0.0264128 bus1=udm7686.1.2 bus2=p1ulv28414.1.2 switch=n enabled=y phases=2 Linecode=1P_OH_AL_2/0_Rucina_0_416_0_2_2

New Line.l(r:udm7686-udt1913lv) Units=km Length=0.0198261 bus1=udt1913lv.1.2 bus2=udm7686.1.2 switch=n enabled=y phases=2 Linecode=1P_OH_AL_2/0_Rucina_0_416_0_2_2

New Line.l(r:p1ulv4315-udt1914lv) Units=km Length=0.0170854 bus1=udt1914lv.1.2 bus2=p1ulv4315.1.2 switch=n enabled=y phases=2 Linecode=1P_UG_AL_1/0_Brenau_0_416_0_2_2
