New Line.l(r:p1ulv1-udm0) Units=km Length=0.00947167 bus1=udm0.1.2 bus2=p1ulv1.1.2 switch=n enabled=y phases=2 Linecode=1P_UG_AL_1/0_Brenau_0_416_0_2_2

New Line.l(r:udm0-udt0lv) Units=km Length=0.0380698 bus1=udt0lv.1.2 bus2=udm0.1.2 switch=n enabled=y phases=2 Linecode=1P_UG_AL_1/0_Brenau_0_416_0_2_2

New Line.l(r:p1ulv28746-udm1) Units=km Length=0.00957765 bus1=udm1.1.2 bus2=p1ulv28746.1.2 switch=n enabled=y phases=2 Linecode=1P_UG_AL_1/0_Brenau_0_416_0_2_2

New Line.l(r:udm1-udt0lv) Units=km Length=0.0429029 bus1=udt0lv.1.2 bus2=udm1.1.2 switch=n enabled=y phases=2 Linecode=1P_UG_AL_1/0_Brenau_0_416_0_2_2

New Line.l(r:p1ulv30187-udm2) Units=km Length=0.012273 bus1=udm2.1.2 bus2=p1ulv30187.1.2 switch=n enabled=y phases=2 Linecode=1P_UG_AL_1/0_Brenau_0_416_0_2_2

New Line.l(r:udm2-udt0lv) Units=km Length=0.00958209 bus1=udt0lv.1.2 bus2=udm2.1.2 switch=n enabled=y phases=2 Linecode=1P_UG_AL_1/0_Brenau_0_416_0_2_2

New Line.l(r:p1ulv29457-udt1lv) Units=km Length=0.0107515 bus1=udt1lv.1.2 bus2=p1ulv29457.1.2 switch=n enabled=y phases=2 Linecode=1P_OH_AL_2/0_Rucina_0_416_0_2_2

New Line.l(r:p1ulv2-udm3) Units=km Length=0.031559 bus1=udm3.1.2 bus2=p1ulv2.1.2 switch=n enabled=y phases=2 Linecode=1P_OH_AL_4/0_Zuzara_0_416_0_2_2

New Line.l(r:udm3-udt1lv) Units=km Length=0.01901 bus1=udt1lv.1.2 bus2=udm3.1.2 switch=n enabled=y phases=2 Linecode=1P_OH_AL_2/0_Rucina_0_416_0_2_2

New Line.l(r:p1ulv6-udt2lv) Units=km Length=0.0129317 bus1=udt2lv.1.2 bus2=p1ulv6.1.2 switch=n enabled=y phases=2 Linecode=1P_UG_AL_1/0_Brenau_0_416_0_2_2

New Line.l(r:p1ulv3-udm5) Units=km Length=0.0164546 bus1=udm5.1.2 bus2=p1ulv3.1.2 switch=n enabled=y phases=2 Linecode=1P_UG_AL_4/0_Sweetbriar_0_416_0_2_2

New Line.l(r:udm5-udt2lv) Units=km Length=0.00960103 bus1=udt2lv.1.2 bus2=udm5.1.2 switch=n enabled=y phases=2 Linecode=1P_UG_AL_4/0_Sweetbriar_0_416_0_2_2

New Line.l(r:p1ulv45946-udm7) Units=km Length=0.00615575 bus1=udm7.1.2 bus2=p1ulv45946.1.2 switch=n enabled=y phases=2 Linecode=1P_UG_AL_1/0_Brenau_0_416_0_2_2

New Line.l(r:udm7-udt2lv) Units=km Length=0.0192025 bus1=udt2lv.1.2 bus2=udm7.1.2 switch=n enabled=y phases=2 Linecode=1P_UG_AL_1/0_Brenau_0_416_0_2_2

New Line.l(r:p1ulv4-udt3lv) Units=km Length=0.00850979 bus1=udt3lv.1.2 bus2=p1ulv4.1.2 switch=n enabled=y phases=2 Linecode=1P_UG_AL_1/0_Brenau_0_416_0_2_2

New Line.l(r:p1ulv30116-udt3lv) Units=km Length=0.012416100000000001 bus1=udt3lv.1.2 bus2=p1ulv30116.1.2 switch=n enabled=y phases=2 Linecode=1P_UG_AL_1/0_Brenau_0_416_0_2_2

New Line.l(r:p1ulv35158-udm10) Units=km Length=0.0222068 bus1=udm10.1.2 bus2=p1ulv35158.1.2 switch=n enabled=y phases=2 Linecode=1P_OH_AL_2/0_Rucina_0_416_0_2_2

New Line.l(r:udm10-udt3lv) Units=km Length=0.0557046 bus1=udt3lv.1.2 bus2=udm10.1.2 switch=n enabled=y phases=2 Linecode=1P_OH_AL_4/0_Zuzara_0_416_0_2_2

New Line.l(r:p1ulv1929-udt4lv) Units=km Length=0.0139964 bus1=udt4lv.1.2 bus2=p1ulv1929.1.2 switch=n enabled=y phases=2 Linecode=1P_UG_AL_4/0_Sweetbriar_0_416_0_2_2

New Line.l(r:p1ulv5-udm11) Units=km Length=0.0226401 bus1=udm11.1.2 bus2=p1ulv5.1.2 switch=n enabled=y phases=2 Linecode=1P_UG_AL_1/0_Brenau_0_416_0_2_2

New Line.l(r:udm11-udt4lv) Units=km Length=0.00933062 bus1=udt4lv.1.2 bus2=udm11.1.2 switch=n enabled=y phases=2 Linecode=1P_UG_AL_1/0_Brenau_0_416_0_2_2

New Line.l(r:p1ulv28679-udm13) Units=km Length=0.0087976 bus1=udm13.1.2 bus2=p1ulv28679.1.2 switch=n enabled=y phases=2 Linecode=1P_UG_AL_1/0_Brenau_0_416_0_2_2

New Line.l(r:udm13-udt4lv) Units=km Length=0.00933062 bus1=udt4lv.1.2 bus2=udm13.1.2 switch=n enabled=y phases=2 Linecode=1P_UG_AL_1/0_Brenau_0_416_0_2_2

New Line.l(r:p1ulv10-udm15) Units=km Length=0.010102 bus1=udm15.1.2 bus2=p1ulv10.1.2 switch=n enabled=y phases=2 Linecode=1P_UG_AL_1/0_Brenau_0_416_0_2_2

New Line.l(r:p1ulv41002-udm18) Units=km Length=0.013083400000000002 bus1=udm18.1.2 bus2=p1ulv41002.1.2 switch=n enabled=y phases=2 Linecode=1P_UG_AL_1/0_Brenau_0_416_0_2_2

New Line.l(r:p1ulv12-udm16) Units=km Length=0.0203769 bus1=udm16.1.2 bus2=p1ulv12.1.2 switch=n enabled=y phases=2 Linecode=1P_UG_AL_1/0_Brenau_0_416_0_2_2

New Line.l(r:udm16-udm18) Units=km Length=0.0414334 bus1=udm18.1.2 bus2=udm16.1.2 switch=n enabled=y phases=2 Linecode=1P_UG_AL_1/0_Brenau_0_416_0_2_2

New Line.l(r:p1ulv45887-udm20) Units=km Length=0.020301 bus1=udm20.1.2 bus2=p1ulv45887.1.2 switch=n enabled=y phases=2 Linecode=1P_UG_AL_1/0_Brenau_0_416_0_2_2

New Line.l(r:udm18-udm20) Units=km Length=0.0487453 bus1=udm18.1.2 bus2=udm20.1.2 switch=n enabled=y phases=2 Linecode=1P_UG_AL_1/0_Brenau_0_416_0_2_2

New Line.l(r:udm15-udm18) Units=km Length=0.0297328 bus1=udm15.1.2 bus2=udm18.1.2 switch=n enabled=y phases=2 Linecode=1P_UG_AL_2/0_Converse_0_416_0_2_2

New Line.l(r:udm15-udt5lv) Units=km Length=0.00998098 bus1=udt5lv.1.2 bus2=udm15.1.2 switch=n enabled=y phases=2 Linecode=1P_UG_AL_4/0_Sweetbriar_0_416_0_2_2

New Line.l(r:p1ulv27233-udm17) Units=km Length=0.0108361 bus1=udm17.1.2 bus2=p1ulv27233.1.2 switch=n enabled=y phases=2 Linecode=1P_UG_AL_1/0_Brenau_0_416_0_2_2

New Line.l(r:p1ulv7-udm14) Units=km Length=0.0117623 bus1=udm14.1.2 bus2=p1ulv7.1.2 switch=n enabled=y phases=2 Linecode=1P_UG_AL_1/0_Brenau_0_416_0_2_2

New Line.l(r:p1ulv41070-udm14) Units=km Length=0.01311 bus1=udm14.1.2 bus2=p1ulv41070.1.2 switch=n enabled=y phases=2 Linecode=1P_UG_AL_1/0_Brenau_0_416_0_2_2

New Line.l(r:udm14-udm17) Units=km Length=0.0199718 bus1=udm17.1.2 bus2=udm14.1.2 switch=n enabled=y phases=2 Linecode=1P_UG_AL_1/0_Brenau_0_416_0_2_2

New Line.l(r:udm17-udt5lv) Units=km Length=0.00999098 bus1=udt5lv.1.2 bus2=udm17.1.2 switch=n enabled=y phases=2 Linecode=1P_UG_AL_2/0_Converse_0_416_0_2_2

New Line.l(r:p1ulv26883-udm24) Units=km Length=0.011437 bus1=udm24.1.2 bus2=p1ulv26883.1.2 switch=n enabled=y phases=2 Linecode=1P_UG_AL_1/0_Brenau_0_416_0_2_2

New Line.l(r:p1ulv30119-udm24) Units=km Length=0.0145517 bus1=udm24.1.2 bus2=p1ulv30119.1.2 switch=n enabled=y phases=2 Linecode=1P_UG_AL_1/0_Brenau_0_416_0_2_2

New Line.l(r:p1ulv8-udm21) Units=km Length=0.0157873 bus1=udm21.1.2 bus2=p1ulv8.1.2 switch=n enabled=y phases=2 Linecode=1P_UG_AL_1/0_Brenau_0_416_0_2_2

New Line.l(r:p1ulv17-udm21) Units=km Length=0.0125437 bus1=udm21.1.2 bus2=p1ulv17.1.2 switch=n enabled=y phases=2 Linecode=1P_UG_AL_1/0_Brenau_0_416_0_2_2

New Line.l(r:p1ulv39291-udm29) Units=km Length=0.0321104 bus1=udm29.1.2 bus2=p1ulv39291.1.2 switch=n enabled=y phases=2 Linecode=1P_UG_AL_1/0_Brenau_0_416_0_2_2

New Line.l(r:udm21-udm29) Units=km Length=0.00999098 bus1=udm21.1.2 bus2=udm29.1.2 switch=n enabled=y phases=2 Linecode=1P_UG_AL_1/0_Brenau_0_416_0_2_2

New Line.l(r:udm21-udm24) Units=km Length=0.009980850000000001 bus1=udm24.1.2 bus2=udm21.1.2 switch=n enabled=y phases=2 Linecode=1P_UG_AL_2/0_Converse_0_416_0_2_2

New Line.l(r:udm24-udt6lv) Units=km Length=0.00999098 bus1=udt6lv.1.2 bus2=udm24.1.2 switch=n enabled=y phases=2 Linecode=1P_UG_AL_4/0_Sweetbriar_0_416_0_2_2

New Line.l(r:p1ulv42719-udm30) Units=km Length=0.0135568 bus1=udm30.1.2 bus2=p1ulv42719.1.2 switch=n enabled=y phases=2 Linecode=1P_UG_AL_1/0_Brenau_0_416_0_2_2

New Line.l(r:p1ulv47345-udm30) Units=km Length=0.0108405 bus1=udm30.1.2 bus2=p1ulv47345.1.2 switch=n enabled=y phases=2 Linecode=1P_UG_AL_1/0_Brenau_0_416_0_2_2

New Line.l(r:p1ulv26293-udm23) Units=km Length=0.015571200000000002 bus1=udm23.1.2 bus2=p1ulv26293.1.2 switch=n enabled=y phases=2 Linecode=1P_UG_AL_1/0_Brenau_0_416_0_2_2

New Line.l(r:p1ulv34602-udm23) Units=km Length=0.0111512 bus1=udm23.1.2 bus2=p1ulv34602.1.2 switch=n enabled=y phases=2 Linecode=1P_UG_AL_1/0_Brenau_0_416_0_2_2

New Line.l(r:p1ulv28477-udm25) Units=km Length=0.014712600000000001 bus1=udm25.1.2 bus2=p1ulv28477.1.2 switch=n enabled=y phases=2 Linecode=1P_UG_AL_1/0_Brenau_0_416_0_2_2

New Line.l(r:p1ulv34961-udm28) Units=km Length=0.0113663 bus1=udm28.1.2 bus2=p1ulv34961.1.2 switch=n enabled=y phases=2 Linecode=1P_UG_AL_1/0_Brenau_0_416_0_2_2

New Line.l(r:udm25-udm28) Units=km Length=0.00998098 bus1=udm25.1.2 bus2=udm28.1.2 switch=n enabled=y phases=2 Linecode=1P_UG_AL_1/0_Brenau_0_416_0_2_2

New Line.l(r:udm23-udm25) Units=km Length=0.00999085 bus1=udm23.1.2 bus2=udm25.1.2 switch=n enabled=y phases=2 Linecode=1P_UG_AL_1/0_Brenau_0_416_0_2_2

New Line.l(r:udm23-udm30) Units=km Length=0.00998098 bus1=udm30.1.2 bus2=udm23.1.2 switch=n enabled=y phases=2 Linecode=1P_UG_AL_4/0_Sweetbriar_0_416_0_2_2

New Line.l(r:udm30-udt6lv) Units=km Length=0.00999098 bus1=udt6lv.1.2 bus2=udm30.1.2 switch=n enabled=y phases=2 Linecode=1P_UG_AL_4/0_Sweetbriar_0_416_0_2_2

New Line.l(r:p1ulv28393-udm34) Units=km Length=0.00693462 bus1=udm34.1.2 bus2=p1ulv28393.1.2 switch=n enabled=y phases=2 Linecode=1P_UG_AL_1/0_Brenau_0_416_0_2_2

New Line.l(r:p1ulv32184-udm36) Units=km Length=0.0189626 bus1=udm36.1.2 bus2=p1ulv32184.1.2 switch=n enabled=y phases=2 Linecode=1P_UG_AL_1/0_Brenau_0_416_0_2_2

New Line.l(r:udm34-udm36) Units=km Length=0.00999098 bus1=udm34.1.2 bus2=udm36.1.2 switch=n enabled=y phases=2 Linecode=1P_UG_AL_1/0_Brenau_0_416_0_2_2

New Line.l(r:udm34-udt7lv) Units=km Length=0.0299628 bus1=udt7lv.1.2 bus2=udm34.1.2 switch=n enabled=y phases=2 Linecode=1P_UG_AL_1/0_Brenau_0_416_0_2_2

New Line.l(r:p1ulv29587-udm35) Units=km Length=0.00883856 bus1=udm35.1.2 bus2=p1ulv29587.1.2 switch=n enabled=y phases=2 Linecode=1P_UG_AL_1/0_Brenau_0_416_0_2_2

New Line.l(r:p1ulv9-udm32) Units=km Length=0.0165004 bus1=udm32.1.2 bus2=p1ulv9.1.2 switch=n enabled=y phases=2 Linecode=1P_UG_AL_1/0_Brenau_0_416_0_2_2

New Line.l(r:p1ulv15-udm32) Units=km Length=0.00869037 bus1=udm32.1.2 bus2=p1ulv15.1.2 switch=n enabled=y phases=2 Linecode=1P_UG_AL_1/0_Brenau_0_416_0_2_2

New Line.l(r:udm32-udm35) Units=km Length=0.00999085 bus1=udm35.1.2 bus2=udm32.1.2 switch=n enabled=y phases=2 Linecode=1P_UG_AL_2/0_Converse_0_416_0_2_2

New Line.l(r:udm35-udt7lv) Units=km Length=0.019972 bus1=udt7lv.1.2 bus2=udm35.1.2 switch=n enabled=y phases=2 Linecode=1P_UG_AL_4/0_Sweetbriar_0_416_0_2_2

New Line.l(r:p1ulv11-udt8lv) Units=km Length=0.0162654 bus1=udt8lv.1.2 bus2=p1ulv11.1.2 switch=n enabled=y phases=2 Linecode=1P_UG_AL_1/0_Brenau_0_416_0_2_2

New Line.l(r:p1ulv13-udm38) Units=km Length=0.00988011 bus1=udm38.1.2 bus2=p1ulv13.1.2 switch=n enabled=y phases=2 Linecode=1P_UG_AL_1/0_Brenau_0_416_0_2_2

New Line.l(r:p1ulv42929-udm38) Units=km Length=0.0127527 bus1=udm38.1.2 bus2=p1ulv42929.1.2 switch=n enabled=y phases=2 Linecode=1P_UG_AL_1/0_Brenau_0_416_0_2_2

New Line.l(r:udm38-udt8lv) Units=km Length=0.00988486 bus1=udt8lv.1.2 bus2=udm38.1.2 switch=n enabled=y phases=2 Linecode=1P_UG_AL_1/0_Brenau_0_416_0_2_2

New Line.l(r:p1ulv29742-udm39) Units=km Length=0.0135918 bus1=udm39.1.2 bus2=p1ulv29742.1.2 switch=n enabled=y phases=2 Linecode=1P_UG_AL_1/0_Brenau_0_416_0_2_2

New Line.l(r:udm39-udt8lv) Units=km Length=0.00988486 bus1=udt8lv.1.2 bus2=udm39.1.2 switch=n enabled=y phases=2 Linecode=1P_UG_AL_1/0_Brenau_0_416_0_2_2

New Line.l(r:p1ulv14-udm41) Units=km Length=0.011683 bus1=udm41.1.2 bus2=p1ulv14.1.2 switch=n enabled=y phases=2 Linecode=1P_UG_AL_1/0_Brenau_0_416_0_2_2

New Line.l(r:udm41-udt9lv) Units=km Length=0.0192034 bus1=udt9lv.1.2 bus2=udm41.1.2 switch=n enabled=y phases=2 Linecode=1P_UG_AL_1/0_Brenau_0_416_0_2_2

New Line.l(r:p1ulv141-udm42) Units=km Length=0.018069 bus1=udm42.1.2 bus2=p1ulv141.1.2 switch=n enabled=y phases=2 Linecode=1P_UG_AL_1/0_Brenau_0_416_0_2_2

New Line.l(r:udm42-udt9lv) Units=km Length=0.0278136 bus1=udt9lv.1.2 bus2=udm42.1.2 switch=n enabled=y phases=2 Linecode=1P_UG_AL_1/0_Brenau_0_416_0_2_2

New Line.l(r:p1ulv35536-udm44) Units=km Length=0.00911178 bus1=udm44.1.2 bus2=p1ulv35536.1.2 switch=n enabled=y phases=2 Linecode=1P_UG_AL_1/0_Brenau_0_416_0_2_2

New Line.l(r:p1ulv28327-udm43) Units=km Length=0.0156897 bus1=udm43.1.2 bus2=p1ulv28327.1.2 switch=n enabled=y phases=2 Linecode=1P_UG_AL_1/0_Brenau_0_416_0_2_2

New Line.l(r:udm43-udm44) Units=km Length=0.00988486 bus1=udm44.1.2 bus2=udm43.1.2 switch=n enabled=y phases=2 Linecode=1P_UG_AL_1/0_Brenau_0_416_0_2_2

New Line.l(r:udm44-udt9lv) Units=km Length=0.0191497 bus1=udt9lv.1.2 bus2=udm44.1.2 switch=n enabled=y phases=2 Linecode=1P_UG_AL_1/0_Brenau_0_416_0_2_2

New Line.l(r:p1ulv16-udm45) Units=km Length=0.009994600000000001 bus1=udm45.1.2 bus2=p1ulv16.1.2 switch=n enabled=y phases=2 Linecode=1P_UG_AL_1/0_Brenau_0_416_0_2_2

New Line.l(r:p1ulv32090-udm45) Units=km Length=0.0131196 bus1=udm45.1.2 bus2=p1ulv32090.1.2 switch=n enabled=y phases=2 Linecode=1P_UG_AL_1/0_Brenau_0_416_0_2_2

New Line.l(r:udm45-udt10lv) Units=km Length=0.00992198 bus1=udt10lv.1.2 bus2=udm45.1.2 switch=n enabled=y phases=2 Linecode=1P_UG_AL_1/0_Brenau_0_416_0_2_2

New Line.l(r:p1ulv46094-udm47) Units=km Length=0.0122484 bus1=udm47.1.2 bus2=p1ulv46094.1.2 switch=n enabled=y phases=2 Linecode=1P_UG_AL_1/0_Brenau_0_416_0_2_2

New Line.l(r:udm47-udt10lv) Units=km Length=0.00992198 bus1=udt10lv.1.2 bus2=udm47.1.2 switch=n enabled=y phases=2 Linecode=1P_UG_AL_1/0_Brenau_0_416_0_2_2

New Line.l(r:p1ulv28682-udt11lv) Units=km Length=0.0120271 bus1=udt11lv.1.2 bus2=p1ulv28682.1.2 switch=n enabled=y phases=2 Linecode=1P_UG_AL_1/0_Brenau_0_416_0_2_2

New Line.l(r:p1ulv35534-udt11lv) Units=km Length=0.0162735 bus1=udt11lv.1.2 bus2=p1ulv35534.1.2 switch=n enabled=y phases=2 Linecode=1P_UG_AL_1/0_Brenau_0_416_0_2_2

New Line.l(r:p1ulv18-udm48) Units=km Length=0.0131314 bus1=udm48.1.2 bus2=p1ulv18.1.2 switch=n enabled=y phases=2 Linecode=1P_UG_AL_1/0_Brenau_0_416_0_2_2

New Line.l(r:udm48-udt11lv) Units=km Length=0.0198333 bus1=udt11lv.1.2 bus2=udm48.1.2 switch=n enabled=y phases=2 Linecode=1P_UG_AL_1/0_Brenau_0_416_0_2_2

New Line.l(r:p1ulv28324-udm49) Units=km Length=0.0120773 bus1=udm49.1.2 bus2=p1ulv28324.1.2 switch=n enabled=y phases=2 Linecode=1P_UG_AL_1/0_Brenau_0_416_0_2_2

New Line.l(r:udm49-udt11lv) Units=km Length=0.00992198 bus1=udt11lv.1.2 bus2=udm49.1.2 switch=n enabled=y phases=2 Linecode=1P_UG_AL_1/0_Brenau_0_416_0_2_2

New Line.l(r:p1ulv21-udt12lv) Units=km Length=0.0156398 bus1=udt12lv.1.2 bus2=p1ulv21.1.2 switch=n enabled=y phases=2 Linecode=1P_UG_AL_1/0_Brenau_0_416_0_2_2

New Line.l(r:p1ulv19-udm52) Units=km Length=0.0119347 bus1=udm52.1.2 bus2=p1ulv19.1.2 switch=n enabled=y phases=2 Linecode=1P_UG_AL_1/0_Brenau_0_416_0_2_2

New Line.l(r:p1ulv44135-udm54) Units=km Length=0.0100469 bus1=udm54.1.2 bus2=p1ulv44135.1.2 switch=n enabled=y phases=2 Linecode=1P_UG_AL_1/0_Brenau_0_416_0_2_2

New Line.l(r:udm52-udm54) Units=km Length=0.0480583 bus1=udm52.1.2 bus2=udm54.1.2 switch=n enabled=y phases=2 Linecode=1P_UG_AL_1/0_Brenau_0_416_0_2_2

New Line.l(r:udm52-udt12lv) Units=km Length=0.00989584 bus1=udt12lv.1.2 bus2=udm52.1.2 switch=n enabled=y phases=2 Linecode=1P_UG_AL_1/0_Brenau_0_416_0_2_2

New Line.l(r:p1ulv53720-udm55) Units=km Length=0.0158099 bus1=udm55.1.2 bus2=p1ulv53720.1.2 switch=n enabled=y phases=2 Linecode=1P_UG_AL_1/0_Brenau_0_416_0_2_2

New Line.l(r:udm55-udt12lv) Units=km Length=0.00989619 bus1=udt12lv.1.2 bus2=udm55.1.2 switch=n enabled=y phases=2 Linecode=1P_UG_AL_1/0_Brenau_0_416_0_2_2

New Line.l(r:p1ulv27745-udt13lv) Units=km Length=0.0179966 bus1=udt13lv.1.2 bus2=p1ulv27745.1.2 switch=n enabled=y phases=2 Linecode=1P_OH_AL_2/0_Rucina_0_416_0_2_2

New Line.l(r:p1ulv59766-udt13lv) Units=km Length=0.015702 bus1=udt13lv.1.2 bus2=p1ulv59766.1.2 switch=n enabled=y phases=2 Linecode=1P_OH_AL_2/0_Rucina_0_416_0_2_2

New Line.l(r:p1ulv20-udm56) Units=km Length=0.0182144 bus1=udm56.1.2 bus2=p1ulv20.1.2 switch=n enabled=y phases=2 Linecode=1P_OH_AL_2/0_Rucina_0_416_0_2_2

New Line.l(r:p1ulv52611-udm56) Units=km Length=0.016360500000000004 bus1=udm56.1.2 bus2=p1ulv52611.1.2 switch=n enabled=y phases=2 Linecode=1P_OH_AL_2/0_Rucina_0_416_0_2_2

New Line.l(r:p1ulv41280-udm60) Units=km Length=0.0172805 bus1=udm60.1.2 bus2=p1ulv41280.1.2 switch=n enabled=y phases=2 Linecode=1P_OH_AL_2/0_Rucina_0_416_0_2_2

New Line.l(r:p1ulv54706-udm60) Units=km Length=0.0159621 bus1=udm60.1.2 bus2=p1ulv54706.1.2 switch=n enabled=y phases=2 Linecode=1P_OH_AL_2/0_Rucina_0_416_0_2_2

New Line.l(r:p1ulv56975-udm63) Units=km Length=0.0151356 bus1=udm63.1.2 bus2=p1ulv56975.1.2 switch=n enabled=y phases=2 Linecode=1P_OH_AL_2/0_Rucina_0_416_0_2_2

New Line.l(r:udm60-udm63) Units=km Length=0.0184773 bus1=udm60.1.2 bus2=udm63.1.2 switch=n enabled=y phases=2 Linecode=1P_OH_AL_2/0_Rucina_0_416_0_2_2

New Line.l(r:udm56-udm60) Units=km Length=0.0184673 bus1=udm56.1.2 bus2=udm60.1.2 switch=n enabled=y phases=2 Linecode=1P_OH_AL_2/0_Rucina_0_416_0_2_2

New Line.l(r:udm56-udt13lv) Units=km Length=0.0184673 bus1=udt13lv.1.2 bus2=udm56.1.2 switch=n enabled=y phases=2 Linecode=1P_OH_AL_2/0_Rucina_0_416_0_2_2

New Line.l(r:p1ulv105-udm57) Units=km Length=0.0190929 bus1=udm57.1.2 bus2=p1ulv105.1.2 switch=n enabled=y phases=2 Linecode=1P_OH_AL_2/0_Rucina_0_416_0_2_2

New Line.l(r:p1ulv57264-udm57) Units=km Length=0.0158134 bus1=udm57.1.2 bus2=p1ulv57264.1.2 switch=n enabled=y phases=2 Linecode=1P_OH_AL_2/0_Rucina_0_416_0_2_2

New Line.l(r:p1ulv37606-udm59) Units=km Length=0.0179958 bus1=udm59.1.2 bus2=p1ulv37606.1.2 switch=n enabled=y phases=2 Linecode=1P_OH_AL_2/0_Rucina_0_416_0_2_2

New Line.l(r:udm57-udm59) Units=km Length=0.0184676 bus1=udm57.1.2 bus2=udm59.1.2 switch=n enabled=y phases=2 Linecode=1P_OH_AL_2/0_Rucina_0_416_0_2_2

New Line.l(r:udm57-udt13lv) Units=km Length=0.0184773 bus1=udt13lv.1.2 bus2=udm57.1.2 switch=n enabled=y phases=2 Linecode=1P_OH_AL_2/0_Rucina_0_416_0_2_2

New Line.l(r:p1ulv22-udm66) Units=km Length=0.016339600000000003 bus1=udm66.1.2 bus2=p1ulv22.1.2 switch=n enabled=y phases=2 Linecode=1P_UG_AL_1/0_Brenau_0_416_0_2_2

New Line.l(r:p1ulv26885-udm66) Units=km Length=0.0173137 bus1=udm66.1.2 bus2=p1ulv26885.1.2 switch=n enabled=y phases=2 Linecode=1P_UG_AL_1/0_Brenau_0_416_0_2_2

New Line.l(r:udm66-udt14lv) Units=km Length=0.0188509 bus1=udt14lv.1.2 bus2=udm66.1.2 switch=n enabled=y phases=2 Linecode=1P_UG_AL_1/0_Brenau_0_416_0_2_2

New Line.l(r:p1ulv26509-udm67) Units=km Length=0.0183179 bus1=udm67.1.2 bus2=p1ulv26509.1.2 switch=n enabled=y phases=2 Linecode=1P_UG_AL_1/0_Brenau_0_416_0_2_2

New Line.l(r:p1ulv38386-udm69) Units=km Length=0.013984200000000002 bus1=udm69.1.2 bus2=p1ulv38386.1.2 switch=n enabled=y phases=2 Linecode=1P_UG_AL_1/0_Brenau_0_416_0_2_2

New Line.l(r:udm67-udm69) Units=km Length=0.0667845 bus1=udm67.1.2 bus2=udm69.1.2 switch=n enabled=y phases=2 Linecode=1P_UG_AL_1/0_Brenau_0_416_0_2_2

New Line.l(r:udm67-udt14lv) Units=km Length=0.00941544 bus1=udt14lv.1.2 bus2=udm67.1.2 switch=n enabled=y phases=2 Linecode=1P_UG_AL_1/0_Brenau_0_416_0_2_2

New Line.l(r:p1ulv23-udt15lv) Units=km Length=0.0177009 bus1=udt15lv.1.2 bus2=p1ulv23.1.2 switch=n enabled=y phases=2 Linecode=1P_UG_AL_4/0_Sweetbriar_0_416_0_2_2

New Line.l(r:p1ulv34417-udt16lv) Units=km Length=0.0365395 bus1=udt16lv.1.2 bus2=p1ulv34417.1.2 switch=n enabled=y phases=2 Linecode=1P_UG_AL_1/0_Brenau_0_416_0_2_2

New Line.l(r:p1ulv24-udm71) Units=km Length=0.0196604 bus1=udm71.1.2 bus2=p1ulv24.1.2 switch=n enabled=y phases=2 Linecode=1P_UG_AL_1/0_Brenau_0_416_0_2_2

New Line.l(r:p1ulv42355-udm71) Units=km Length=0.0189637 bus1=udm71.1.2 bus2=p1ulv42355.1.2 switch=n enabled=y phases=2 Linecode=1P_UG_AL_1/0_Brenau_0_416_0_2_2

New Line.l(r:p1ulv43997-udm71) Units=km Length=0.0166594 bus1=udm71.1.2 bus2=p1ulv43997.1.2 switch=n enabled=y phases=2 Linecode=1P_UG_AL_1/0_Brenau_0_416_0_2_2

New Line.l(r:p1ulv47207-udm78) Units=km Length=0.0158901 bus1=udm78.1.2 bus2=p1ulv47207.1.2 switch=n enabled=y phases=2 Linecode=1P_UG_AL_1/0_Brenau_0_416_0_2_2

New Line.l(r:udm71-udm78) Units=km Length=0.0199848 bus1=udm71.1.2 bus2=udm78.1.2 switch=n enabled=y phases=2 Linecode=1P_UG_AL_1/0_Brenau_0_416_0_2_2

New Line.l(r:udm71-udt16lv) Units=km Length=0.00999761 bus1=udt16lv.1.2 bus2=udm71.1.2 switch=n enabled=y phases=2 Linecode=1P_UG_AL_4/0_Sweetbriar_0_416_0_2_2

New Line.l(r:p1ulv38917-udm75) Units=km Length=0.0159697 bus1=udm75.1.2 bus2=p1ulv38917.1.2 switch=n enabled=y phases=2 Linecode=1P_UG_AL_1/0_Brenau_0_416_0_2_2

New Line.l(r:p1ulv30587-udm73) Units=km Length=0.0193918 bus1=udm73.1.2 bus2=p1ulv30587.1.2 switch=n enabled=y phases=2 Linecode=1P_UG_AL_1/0_Brenau_0_416_0_2_2

New Line.l(r:p1ulv49022-udm79) Units=km Length=0.01592 bus1=udm79.1.2 bus2=p1ulv49022.1.2 switch=n enabled=y phases=2 Linecode=1P_UG_AL_1/0_Brenau_0_416_0_2_2

New Line.l(r:p1ulv27341-udm72) Units=km Length=0.018540900000000003 bus1=udm72.1.2 bus2=p1ulv27341.1.2 switch=n enabled=y phases=2 Linecode=1P_UG_AL_1/0_Brenau_0_416_0_2_2

New Line.l(r:udm72-udm79) Units=km Length=0.00999761 bus1=udm79.1.2 bus2=udm72.1.2 switch=n enabled=y phases=2 Linecode=1P_UG_AL_1/0_Brenau_0_416_0_2_2

New Line.l(r:udm73-udm79) Units=km Length=0.00998723 bus1=udm73.1.2 bus2=udm79.1.2 switch=n enabled=y phases=2 Linecode=1P_UG_AL_4/0_Sweetbriar_0_416_0_2_2

New Line.l(r:udm73-udm75) Units=km Length=0.00999761 bus1=udm75.1.2 bus2=udm73.1.2 switch=n enabled=y phases=2 Linecode=1P_UG_AL_4/0_Sweetbriar_0_416_0_2_2

New Line.l(r:udm75-udt16lv) Units=km Length=0.00998723 bus1=udt16lv.1.2 bus2=udm75.1.2 switch=n enabled=y phases=2 Linecode=1P_UG_AL_4/0_Sweetbriar_0_416_0_2_2

New Line.l(r:p1ulv49350-udm81) Units=km Length=0.0128615 bus1=udm81.1.2 bus2=p1ulv49350.1.2 switch=n enabled=y phases=2 Linecode=1P_UG_AL_1/0_Brenau_0_416_0_2_2

New Line.l(r:p1ulv25-udm80) Units=km Length=0.0146757 bus1=udm80.1.2 bus2=p1ulv25.1.2 switch=n enabled=y phases=2 Linecode=1P_UG_AL_1/0_Brenau_0_416_0_2_2

New Line.l(r:udm80-udm81) Units=km Length=0.01882 bus1=udm81.1.2 bus2=udm80.1.2 switch=n enabled=y phases=2 Linecode=1P_UG_AL_1/0_Brenau_0_416_0_2_2

New Line.l(r:udm81-udt17lv) Units=km Length=0.0271384 bus1=udt17lv.1.2 bus2=udm81.1.2 switch=n enabled=y phases=2 Linecode=1P_UG_AL_2/0_Converse_0_416_0_2_2

New Line.l(r:p1ulv50703-udm82) Units=km Length=0.015297900000000001 bus1=udm82.1.2 bus2=p1ulv50703.1.2 switch=n enabled=y phases=2 Linecode=1P_UG_AL_1/0_Brenau_0_416_0_2_2

New Line.l(r:udm82-udt17lv) Units=km Length=0.0555551 bus1=udt17lv.1.2 bus2=udm82.1.2 switch=n enabled=y phases=2 Linecode=1P_UG_AL_1/0_Brenau_0_416_0_2_2

New Line.l(r:p1ulv26-udm83) Units=km Length=0.0162623 bus1=udm83.1.2 bus2=p1ulv26.1.2 switch=n enabled=y phases=2 Linecode=1P_UG_AL_1/0_Brenau_0_416_0_2_2

New Line.l(r:p1ulv44071-udm83) Units=km Length=0.0168803 bus1=udm83.1.2 bus2=p1ulv44071.1.2 switch=n enabled=y phases=2 Linecode=1P_UG_AL_1/0_Brenau_0_416_0_2_2

New Line.l(r:udm83-udt18lv) Units=km Length=0.00943613 bus1=udt18lv.1.2 bus2=udm83.1.2 switch=n enabled=y phases=2 Linecode=1P_UG_AL_1/0_Brenau_0_416_0_2_2

New Line.l(r:p1ulv48754-udm85) Units=km Length=0.0157908 bus1=udm85.1.2 bus2=p1ulv48754.1.2 switch=n enabled=y phases=2 Linecode=1P_UG_AL_1/0_Brenau_0_416_0_2_2

New Line.l(r:udm85-udt18lv) Units=km Length=0.0456925 bus1=udt18lv.1.2 bus2=udm85.1.2 switch=n enabled=y phases=2 Linecode=1P_UG_AL_1/0_Brenau_0_416_0_2_2

New Line.l(r:p1ulv26024-udt19lv) Units=km Length=0.00375139 bus1=udt19lv.1.2 bus2=p1ulv26024.1.2 switch=n enabled=y phases=2 Linecode=1P_UG_AL_1/0_Brenau_0_416_0_2_2

New Line.l(r:p1ulv27-udm86) Units=km Length=0.015719 bus1=udm86.1.2 bus2=p1ulv27.1.2 switch=n enabled=y phases=2 Linecode=1P_UG_AL_1/0_Brenau_0_416_0_2_2

New Line.l(r:p1ulv31470-udm86) Units=km Length=0.0137435 bus1=udm86.1.2 bus2=p1ulv31470.1.2 switch=n enabled=y phases=2 Linecode=1P_UG_AL_4/0_Sweetbriar_0_416_0_2_2

New Line.l(r:udm86-udt19lv) Units=km Length=0.0286028 bus1=udt19lv.1.2 bus2=udm86.1.2 switch=n enabled=y phases=2 Linecode=1P_UG_AL_4/0_Sweetbriar_0_416_0_2_2

New Line.l(r:p1ulv45644-udm91) Units=km Length=0.00543253 bus1=udm91.1.2 bus2=p1ulv45644.1.2 switch=n enabled=y phases=2 Linecode=1P_UG_AL_1/0_Brenau_0_416_0_2_2

New Line.l(r:p1ulv36658-udm90) Units=km Length=0.013019900000000001 bus1=udm90.1.2 bus2=p1ulv36658.1.2 switch=n enabled=y phases=2 Linecode=1P_OH_AL_2/0_Rucina_0_416_0_2_2

New Line.l(r:p1ulv33633-udm89) Units=km Length=0.0194157 bus1=udm89.1.2 bus2=p1ulv33633.1.2 switch=n enabled=y phases=2 Linecode=1P_OH_AL_2/0_Rucina_0_416_0_2_2

New Line.l(r:udm89-udm90) Units=km Length=0.0511216 bus1=udm90.1.2 bus2=udm89.1.2 switch=n enabled=y phases=2 Linecode=1P_OH_AL_4/0_Zuzara_0_416_0_2_2

New Line.l(r:udm90-udm91) Units=km Length=0.0377442 bus1=udm91.1.2 bus2=udm90.1.2 switch=n enabled=y phases=2 Linecode=1P_OH_AL_4/0_Zuzara_0_416_0_2_2

New Line.l(r:udm91-udt19lv) Units=km Length=0.00953428 bus1=udt19lv.1.2 bus2=udm91.1.2 switch=n enabled=y phases=2 Linecode=1P_UG_AL_4/0_Sweetbriar_0_416_0_2_2

New Line.l(r:p1ulv29-udt21lv) Units=km Length=0.0163777 bus1=udt21lv.1.2 bus2=p1ulv29.1.2 switch=n enabled=y phases=2 Linecode=1P_UG_AL_4/0_Sweetbriar_0_416_0_2_2

New Line.l(r:p1ulv32824-udt21lv) Units=km Length=0.0132736 bus1=udt21lv.1.2 bus2=p1ulv32824.1.2 switch=n enabled=y phases=2 Linecode=1P_UG_AL_1/0_Brenau_0_416_0_2_2

New Line.l(r:p1ulv28917-udm94) Units=km Length=0.013243000000000001 bus1=udm94.1.2 bus2=p1ulv28917.1.2 switch=n enabled=y phases=2 Linecode=1P_UG_AL_1/0_Brenau_0_416_0_2_2

New Line.l(r:udm94-udt21lv) Units=km Length=0.0192063 bus1=udt21lv.1.2 bus2=udm94.1.2 switch=n enabled=y phases=2 Linecode=1P_UG_AL_1/0_Brenau_0_416_0_2_2

New Line.l(r:p1ulv50475-udm96) Units=km Length=0.0131647 bus1=udm96.1.2 bus2=p1ulv50475.1.2 switch=n enabled=y phases=2 Linecode=1P_UG_AL_1/0_Brenau_0_416_0_2_2

New Line.l(r:udm96-udt21lv) Units=km Length=0.0192158 bus1=udt21lv.1.2 bus2=udm96.1.2 switch=n enabled=y phases=2 Linecode=1P_UG_AL_1/0_Brenau_0_416_0_2_2

New Line.l(r:p1ulv31-udt23lv) Units=km Length=0.015231200000000002 bus1=udt23lv.1.2 bus2=p1ulv31.1.2 switch=n enabled=y phases=2 Linecode=1P_UG_AL_4/0_Sweetbriar_0_416_0_2_2

New Line.l(r:p1ulv30042-udt23lv) Units=km Length=0.0182499 bus1=udt23lv.1.2 bus2=p1ulv30042.1.2 switch=n enabled=y phases=2 Linecode=1P_UG_AL_2/0_Converse_0_416_0_2_2

New Line.l(r:p1ulv32-udt24lv) Units=km Length=0.0140044 bus1=udt24lv.1.2 bus2=p1ulv32.1.2 switch=n enabled=y phases=2 Linecode=1P_UG_AL_4/0_Sweetbriar_0_416_0_2_2

New Line.l(r:p1ulv33-udt25lv) Units=km Length=0.0157187 bus1=udt25lv.1.2 bus2=p1ulv33.1.2 switch=n enabled=y phases=2 Linecode=1P_UG_AL_4/0_Sweetbriar_0_416_0_2_2

New Line.l(r:p1ulv29327-udt32lv) Units=km Length=0.0157552 bus1=udt32lv.1.2 bus2=p1ulv29327.1.2 switch=n enabled=y phases=2 Linecode=1P_UG_AL_1/0_Brenau_0_416_0_2_2

New Line.l(r:p1ulv38097-udt32lv) Units=km Length=0.0148288 bus1=udt32lv.1.2 bus2=p1ulv38097.1.2 switch=n enabled=y phases=2 Linecode=1P_UG_AL_1/0_Brenau_0_416_0_2_2

New Line.l(r:p1ulv43-udm111) Units=km Length=0.01787 bus1=udm111.1.2 bus2=p1ulv43.1.2 switch=n enabled=y phases=2 Linecode=1P_UG_AL_1/0_Brenau_0_416_0_2_2

New Line.l(r:p1ulv40828-udm119) Units=km Length=0.026172 bus1=udm119.1.2 bus2=p1ulv40828.1.2 switch=n enabled=y phases=2 Linecode=1P_UG_AL_1/0_Brenau_0_416_0_2_2

New Line.l(r:p1ulv33853-udm114) Units=km Length=0.016117000000000003 bus1=udm114.1.2 bus2=p1ulv33853.1.2 switch=n enabled=y phases=2 Linecode=1P_UG_AL_1/0_Brenau_0_416_0_2_2

New Line.l(r:p1ulv31688-udm113) Units=km Length=0.0103411 bus1=udm113.1.2 bus2=p1ulv31688.1.2 switch=n enabled=y phases=2 Linecode=1P_UG_AL_1/0_Brenau_0_416_0_2_2

New Line.l(r:p1ulv34900-udm115) Units=km Length=0.016661 bus1=udm115.1.2 bus2=p1ulv34900.1.2 switch=n enabled=y phases=2 Linecode=1P_UG_AL_1/0_Brenau_0_416_0_2_2

New Line.l(r:udm113-udm115) Units=km Length=0.0469749 bus1=udm113.1.2 bus2=udm115.1.2 switch=n enabled=y phases=2 Linecode=1P_UG_AL_1/0_Brenau_0_416_0_2_2

New Line.l(r:udm113-udm114) Units=km Length=0.00971525 bus1=udm114.1.2 bus2=udm113.1.2 switch=n enabled=y phases=2 Linecode=1P_UG_AL_1/0_Brenau_0_416_0_2_2

New Line.l(r:udm114-udm119) Units=km Length=0.00970456 bus1=udm119.1.2 bus2=udm114.1.2 switch=n enabled=y phases=2 Linecode=1P_UG_AL_1/0_Brenau_0_416_0_2_2

New Line.l(r:udm111-udm119) Units=km Length=0.0194106 bus1=udm111.1.2 bus2=udm119.1.2 switch=n enabled=y phases=2 Linecode=1P_UG_AL_2/0_Converse_0_416_0_2_2

New Line.l(r:udm111-udt32lv) Units=km Length=0.00971525 bus1=udt32lv.1.2 bus2=udm111.1.2 switch=n enabled=y phases=2 Linecode=1P_UG_AL_4/0_Sweetbriar_0_416_0_2_2

New Line.l(r:p1ulv43935-udm120) Units=km Length=0.0164364 bus1=udm120.1.2 bus2=p1ulv43935.1.2 switch=n enabled=y phases=2 Linecode=1P_UG_AL_1/0_Brenau_0_416_0_2_2

New Line.l(r:p1ulv48953-udm120) Units=km Length=0.0158045 bus1=udm120.1.2 bus2=p1ulv48953.1.2 switch=n enabled=y phases=2 Linecode=1P_UG_AL_1/0_Brenau_0_416_0_2_2

New Line.l(r:p1ulv38309-udm118) Units=km Length=0.0167657 bus1=udm118.1.2 bus2=p1ulv38309.1.2 switch=n enabled=y phases=2 Linecode=1P_UG_AL_1/0_Brenau_0_416_0_2_2

New Line.l(r:p1ulv41-udm110) Units=km Length=0.0171488 bus1=udm110.1.2 bus2=p1ulv41.1.2 switch=n enabled=y phases=2 Linecode=1P_UG_AL_1/0_Brenau_0_416_0_2_2

New Line.l(r:p1ulv36359-udm116) Units=km Length=0.0186863 bus1=udm116.1.2 bus2=p1ulv36359.1.2 switch=n enabled=y phases=2 Linecode=1P_UG_AL_1/0_Brenau_0_416_0_2_2

New Line.l(r:p1ulv49192-udm122) Units=km Length=0.015501600000000003 bus1=udm122.1.2 bus2=p1ulv49192.1.2 switch=n enabled=y phases=2 Linecode=1P_UG_AL_1/0_Brenau_0_416_0_2_2

New Line.l(r:udm116-udm122) Units=km Length=0.009234340000000002 bus1=udm116.1.2 bus2=udm122.1.2 switch=n enabled=y phases=2 Linecode=1P_UG_AL_1/0_Brenau_0_416_0_2_2

New Line.l(r:udm110-udm116) Units=km Length=0.018468000000000002 bus1=udm110.1.2 bus2=udm116.1.2 switch=n enabled=y phases=2 Linecode=1P_UG_AL_1/0_Brenau_0_416_0_2_2

New Line.l(r:udm110-udm118) Units=km Length=0.00922436 bus1=udm118.1.2 bus2=udm110.1.2 switch=n enabled=y phases=2 Linecode=1P_UG_AL_1/0_Brenau_0_416_0_2_2

New Line.l(r:udm118-udm120) Units=km Length=0.00971525 bus1=udm120.1.2 bus2=udm118.1.2 switch=n enabled=y phases=2 Linecode=1P_UG_AL_2/0_Converse_0_416_0_2_2

New Line.l(r:udm120-udt32lv) Units=km Length=0.0194098 bus1=udt32lv.1.2 bus2=udm120.1.2 switch=n enabled=y phases=2 Linecode=1P_UG_AL_4/0_Sweetbriar_0_416_0_2_2
