New Load.load_p1ulv1 conn=wye bus1=p1ulv1.1.2 kV=0.2080002494301389 Vminpu=0.8 Vmaxpu=1.2 model=1 kW=18.23 kvar=0.6592580864811803 Phases=2

New Load.load_p1ulv2 conn=wye bus1=p1ulv2.1.2 kV=0.2080002494301389 Vminpu=0.8 Vmaxpu=1.2 model=1 kW=4.54005 kvar=0.9195182361353397 Phases=2

New Load.load_p1ulv3 conn=wye bus1=p1ulv3.1.2 kV=0.2080002494301389 Vminpu=0.8 Vmaxpu=1.2 model=1 kW=17.3802 kvar=3.529200133551121 Phases=2

New Load.load_p1ulv4 conn=wye bus1=p1ulv4.1.2 kV=0.2080002494301389 Vminpu=0.8 Vmaxpu=1.2 model=1 kW=10.91 kvar=0.6906498322195993 Phases=2

New Load.load_p1ulv5 conn=wye bus1=p1ulv5.1.2 kV=0.2080002494301389 Vminpu=0.8 Vmaxpu=1.2 model=1 kW=18.63 kvar=0.7409012375272501 Phases=2

New Load.load_p1ulv6 conn=wye bus1=p1ulv6.1.2 kV=0.2080002494301389 Vminpu=0.8 Vmaxpu=1.2 model=1 kW=2.88003 kvar=0.5802786818127376 Phases=2

New Load.load_p1ulv7 conn=wye bus1=p1ulv7.1.2 kV=0.2080002494301389 Vminpu=0.8 Vmaxpu=1.2 model=1 kW=11.31 kvar=0.769665394243948 Phases=2

New Load.load_p1ulv8 conn=wye bus1=p1ulv8.1.2 kV=0.2080002494301389 Vminpu=0.8 Vmaxpu=1.2 model=1 kW=3.60004 kvar=0.7291334744808246 Phases=2

New Load.load_p1ulv9 conn=wye bus1=p1ulv9.1.2 kV=0.2080002494301389 Vminpu=0.8 Vmaxpu=1.2 model=1 kW=12.5901 kvar=1.0309123903570856 Phases=2

New Load.load_p1ulv10 conn=wye bus1=p1ulv10.1.2 kV=0.2080002494301389 Vminpu=0.8 Vmaxpu=1.2 model=1 kW=18.08 kvar=0.6302452033833459 Phases=2

New Load.load_p1ulv11 conn=wye bus1=p1ulv11.1.2 kV=0.2080002494301389 Vminpu=0.8 Vmaxpu=1.2 model=1 kW=17.88 kvar=0.5893205887930111 Phases=2

New Load.load_p1ulv12 conn=wye bus1=p1ulv12.1.2 kV=0.2080002494301389 Vminpu=0.8 Vmaxpu=1.2 model=1 kW=18.13 kvar=0.6404763570309296 Phases=2

New Load.load_p1ulv13 conn=wye bus1=p1ulv13.1.2 kV=0.2080002494301389 Vminpu=0.8 Vmaxpu=1.2 model=1 kW=17.78 kvar=0.5703014980185626 Phases=2

New Load.load_p1ulv14 conn=wye bus1=p1ulv14.1.2 kV=0.2080002494301389 Vminpu=0.8 Vmaxpu=1.2 model=1 kW=18.56 kvar=0.7191629458284491 Phases=2

New Load.load_p1ulv15 conn=wye bus1=p1ulv15.1.2 kV=0.2080002494301389 Vminpu=0.8 Vmaxpu=1.2 model=1 kW=19.06 kvar=0.8201678426594468 Phases=2

New Load.load_p1ulv16 conn=wye bus1=p1ulv16.1.2 kV=0.2080002494301389 Vminpu=0.8 Vmaxpu=1.2 model=1 kW=19.8601 kvar=0.9894153325398525 Phases=2

New Load.load_p1ulv17 conn=wye bus1=p1ulv17.1.2 kV=0.2080002494301389 Vminpu=0.8 Vmaxpu=1.2 model=1 kW=18.98 kvar=0.8102617463034154 Phases=2

New Load.load_p1ulv18 conn=wye bus1=p1ulv18.1.2 kV=0.2080002494301389 Vminpu=0.8 Vmaxpu=1.2 model=1 kW=19.12 kvar=0.8409115972996914 Phases=2

New Load.load_p1ulv19 conn=wye bus1=p1ulv19.1.2 kV=0.2080002494301389 Vminpu=0.8 Vmaxpu=1.2 model=1 kW=17.89 kvar=0.5898631429656088 Phases=2

New Load.load_p1ulv20 conn=wye bus1=p1ulv20.1.2 kV=0.2080002494301389 Vminpu=0.8 Vmaxpu=1.2 model=1 kW=2.81003 kvar=0.570600928141371 Phases=2

New Load.load_p1ulv21 conn=wye bus1=p1ulv21.1.2 kV=0.2080002494301389 Vminpu=0.8 Vmaxpu=1.2 model=1 kW=1.38001 kvar=0.28022298226153225 Phases=2

New Load.load_p1ulv22 conn=wye bus1=p1ulv22.1.2 kV=0.2080002494301389 Vminpu=0.8 Vmaxpu=1.2 model=1 kW=1.9700200000000003 kvar=0.4000296226222012 Phases=2

New Load.load_p1ulv23 conn=wye bus1=p1ulv23.1.2 kV=0.2080002494301389 Vminpu=0.8 Vmaxpu=1.2 model=1 kW=11.4401 kvar=2.3230113835190718 Phases=2

New Load.load_p1ulv24 conn=wye bus1=p1ulv24.1.2 kV=0.2080002494301389 Vminpu=0.8 Vmaxpu=1.2 model=1 kW=4.12004 kvar=0.8409115972996914 Phases=2

New Load.load_p1ulv25 conn=wye bus1=p1ulv25.1.2 kV=0.2080002494301389 Vminpu=0.8 Vmaxpu=1.2 model=1 kW=6.08006 kvar=1.2409571184449573 Phases=2

New Load.load_p1ulv26 conn=wye bus1=p1ulv26.1.2 kV=0.2080002494301389 Vminpu=0.8 Vmaxpu=1.2 model=1 kW=3.33003 kvar=0.6796683639857601 Phases=2

New Load.load_p1ulv27 conn=wye bus1=p1ulv27.1.2 kV=0.2080002494301389 Vminpu=0.8 Vmaxpu=1.2 model=1 kW=6.390060000000001 kvar=1.3008967685208197 Phases=2

New Load.load_p1ulv28 conn=wye bus1=p1ulv28.1.2.3 kV=0.48 Vminpu=0.8 Vmaxpu=1.2 model=1 kW=34.4403 kvar=6.993401189833298 Phases=3

New Load.load_p1ulv29 conn=wye bus1=p1ulv29.1.2 kV=0.2080002494301389 Vminpu=0.8 Vmaxpu=1.2 model=1 kW=12.3501 kvar=2.507794764696016 Phases=2

New Load.load_p1ulv30 conn=wye bus1=p1ulv30.1.2.3 kV=0.48 Vminpu=0.8 Vmaxpu=1.2 model=1 kW=67.8207 kvar=13.771580505260616 Phases=3

New Load.load_p1ulv31 conn=wye bus1=p1ulv31.1.2 kV=0.2080002494301389 Vminpu=0.8 Vmaxpu=1.2 model=1 kW=15.4502 kvar=3.1372969185274933 Phases=2

New Load.load_p1ulv32 conn=wye bus1=p1ulv32.1.2 kV=0.2080002494301389 Vminpu=0.8 Vmaxpu=1.2 model=1 kW=11.9501 kvar=2.4328169803570936 Phases=2

New Load.load_p1ulv33 conn=wye bus1=p1ulv33.1.2 kV=0.2080002494301389 Vminpu=0.8 Vmaxpu=1.2 model=1 kW=17.7502 kvar=3.6043318379857032 Phases=2

New Load.load_p1ulv34 conn=wye bus1=p1ulv34.1.2.3 kV=0.48 Vminpu=0.8 Vmaxpu=1.2 model=1 kW=29.610299999999995 kvar=6.012627858971056 Phases=3

New Load.load_p1ulv35 conn=wye bus1=p1ulv35.1.2.3 kV=0.48 Vminpu=0.8 Vmaxpu=1.2 model=1 kW=21.820199999999996 kvar=4.430780586766101 Phases=3

New Load.load_p1ulv36 conn=wye bus1=p1ulv36.1.2.3 kV=0.48 Vminpu=0.8 Vmaxpu=1.2 model=1 kW=28.660299999999996 kvar=5.819722131368753 Phases=3

New Load.load_p1ulv40 conn=wye bus1=p1ulv40.1.2.3 kV=0.48 Vminpu=0.8 Vmaxpu=1.2 model=1 kW=29.0202 kvar=4.369862988575898 Phases=3

New Load.load_p1ulv41 conn=wye bus1=p1ulv41.1.2 kV=0.2080002494301389 Vminpu=0.8 Vmaxpu=1.2 model=1 kW=9.28 kvar=0.35958147291422454 Phases=2

New Load.load_p1ulv42 conn=wye bus1=p1ulv42.1.2 kV=0.2080002494301389 Vminpu=0.8 Vmaxpu=1.2 model=1 kW=18.2001 kvar=2.1727479746499094 Phases=2

New Load.load_p1ulv43 conn=wye bus1=p1ulv43.1.2 kV=0.2080002494301389 Vminpu=0.8 Vmaxpu=1.2 model=1 kW=10.67 kvar=0.6403771062023346 Phases=2

New Load.load_p1ulv44 conn=wye bus1=p1ulv44.1.2 kV=0.2080002494301389 Vminpu=0.8 Vmaxpu=1.2 model=1 kW=22.5202 kvar=3.049981694454871 Phases=2

New Load.load_p1umv1 conn=wye bus1=p1umv1.1.2.3 kV=12.47 Vminpu=0.8 Vmaxpu=1.2 model=1 kW=1091.73 kvar=221.68523157396154 Phases=3

New Load.load_p1ulv100 conn=wye bus1=p1ulv100.1.2 kV=0.2080002494301389 Vminpu=0.8 Vmaxpu=1.2 model=1 kW=18.46 kvar=0.7007765735124853 Phases=2

New Load.load_p1ulv101 conn=wye bus1=p1ulv101.1.2 kV=0.2080002494301389 Vminpu=0.8 Vmaxpu=1.2 model=1 kW=19.05 kvar=0.8202741461167985 Phases=2

New Load.load_p1ulv105 conn=wye bus1=p1ulv105.1.2 kV=0.2080002494301389 Vminpu=0.8 Vmaxpu=1.2 model=1 kW=17.47 kvar=0.5002650705650844 Phases=2

New Load.load_p1ulv108 conn=wye bus1=p1ulv108.1.2 kV=0.2080002494301389 Vminpu=0.8 Vmaxpu=1.2 model=1 kW=20.6601 kvar=1.149324202708102 Phases=2

New Load.load_p1ulv109 conn=wye bus1=p1ulv109.1.2 kV=0.2080002494301389 Vminpu=0.8 Vmaxpu=1.2 model=1 kW=19.9501 kvar=0.999958579116559 Phases=2

New Load.load_p1ulv110 conn=wye bus1=p1ulv110.1.2 kV=0.2080002494301389 Vminpu=0.8 Vmaxpu=1.2 model=1 kW=18.63 kvar=0.7409012375272501 Phases=2

New Load.load_p1ulv111 conn=wye bus1=p1ulv111.1.2 kV=0.2080002494301389 Vminpu=0.8 Vmaxpu=1.2 model=1 kW=17.94 kvar=0.6000682817178988 Phases=2

New Load.load_p1ulv112 conn=wye bus1=p1ulv112.1.2 kV=0.2080002494301389 Vminpu=0.8 Vmaxpu=1.2 model=1 kW=28.1101 kvar=2.662119346777859 Phases=2

New Load.load_p1ulv113 conn=wye bus1=p1ulv113.1.2 kV=0.2080002494301389 Vminpu=0.8 Vmaxpu=1.2 model=1 kW=16.7 kvar=0.3398297485169116 Phases=2

New Load.load_p1ulv114 conn=wye bus1=p1ulv114.1.2 kV=0.2080002494301389 Vminpu=0.8 Vmaxpu=1.2 model=1 kW=18.28 kvar=0.6694632252334703 Phases=2

New Load.load_p1ulv115 conn=wye bus1=p1ulv115.1.2 kV=0.2080002494301389 Vminpu=0.8 Vmaxpu=1.2 model=1 kW=18.4 kvar=0.6904055379154336 Phases=2

New Load.load_p1ulv116 conn=wye bus1=p1ulv116.1.2 kV=0.2080002494301389 Vminpu=0.8 Vmaxpu=1.2 model=1 kW=16.94 kvar=0.38985885154138106 Phases=2

New Load.load_p1ulv117 conn=wye bus1=p1ulv117.1.2 kV=0.2080002494301389 Vminpu=0.8 Vmaxpu=1.2 model=1 kW=17.66 kvar=0.5401421290462703 Phases=2

New Load.load_p1ulv118 conn=wye bus1=p1ulv118.1.2 kV=0.2080002494301389 Vminpu=0.8 Vmaxpu=1.2 model=1 kW=20.2201 kvar=1.059976361442534 Phases=2

New Load.load_p1ulv119 conn=wye bus1=p1ulv119.1.2 kV=0.2080002494301389 Vminpu=0.8 Vmaxpu=1.2 model=1 kW=18.67 kvar=0.7394527047982206 Phases=2

New Load.load_p1ulv120 conn=wye bus1=p1ulv120.1.2 kV=0.2080002494301389 Vminpu=0.8 Vmaxpu=1.2 model=1 kW=19.94 kvar=1.0005321664784275 Phases=2

New Load.load_p1ulv121 conn=wye bus1=p1ulv121.1.2 kV=0.2080002494301389 Vminpu=0.8 Vmaxpu=1.2 model=1 kW=31.4002 kvar=3.3302026461297976 Phases=2

New Load.load_p1ulv122 conn=wye bus1=p1ulv122.1.2 kV=0.2080002494301389 Vminpu=0.8 Vmaxpu=1.2 model=1 kW=18.35 kvar=0.6802526048837334 Phases=2

New Load.load_p1ulv123 conn=wye bus1=p1ulv123.1.2 kV=0.2080002494301389 Vminpu=0.8 Vmaxpu=1.2 model=1 kW=16.77 kvar=0.36034298554586675 Phases=2

New Load.load_p1ulv124 conn=wye bus1=p1ulv124.1.2 kV=0.2080002494301389 Vminpu=0.8 Vmaxpu=1.2 model=1 kW=18.07 kvar=0.620176126836135 Phases=2

New Load.load_p1ulv125 conn=wye bus1=p1ulv125.1.2 kV=0.2080002494301389 Vminpu=0.8 Vmaxpu=1.2 model=1 kW=17.27 kvar=0.4597581053935405 Phases=2

New Load.load_p1ulv126 conn=wye bus1=p1ulv126.1.2 kV=0.2080002494301389 Vminpu=0.8 Vmaxpu=1.2 model=1 kW=19.18 kvar=0.8509780077632708 Phases=2

New Load.load_p1ulv127 conn=wye bus1=p1ulv127.1.2 kV=0.2080002494301389 Vminpu=0.8 Vmaxpu=1.2 model=1 kW=16.66 kvar=0.33967839356123863 Phases=2

New Load.load_p1ulv128 conn=wye bus1=p1ulv128.1.2.3 kV=0.48 Vminpu=0.8 Vmaxpu=1.2 model=1 kW=37.7702 kvar=4.623686314368404 Phases=3

New Load.load_p1ulv129 conn=wye bus1=p1ulv129.1.2 kV=0.2080002494301389 Vminpu=0.8 Vmaxpu=1.2 model=1 kW=18.04 kvar=0.6204785592224786 Phases=2

New Load.load_p1ulv130 conn=wye bus1=p1ulv130.1.2 kV=0.2080002494301389 Vminpu=0.8 Vmaxpu=1.2 model=1 kW=19.28 kvar=0.8690991898599637 Phases=2

New Load.load_p1ulv131 conn=wye bus1=p1ulv131.1.2 kV=0.2080002494301389 Vminpu=0.8 Vmaxpu=1.2 model=1 kW=18.41 kvar=0.6906498322195993 Phases=2

New Load.load_p1ulv132 conn=wye bus1=p1ulv132.1.2 kV=0.2080002494301389 Vminpu=0.8 Vmaxpu=1.2 model=1 kW=22.7101 kvar=1.5696281657820117 Phases=2

New Load.load_p1ulv133 conn=wye bus1=p1ulv133.1.2 kV=0.2080002494301389 Vminpu=0.8 Vmaxpu=1.2 model=1 kW=18.93 kvar=0.8000826809384517 Phases=2

New Load.load_p1ulv134 conn=wye bus1=p1ulv134.1.2 kV=0.2080002494301389 Vminpu=0.8 Vmaxpu=1.2 model=1 kW=19.41 kvar=0.900101402062973 Phases=2

New Load.load_p1ulv135 conn=wye bus1=p1ulv135.1.2 kV=0.2080002494301389 Vminpu=0.8 Vmaxpu=1.2 model=1 kW=18.91 kvar=0.7898663736101474 Phases=2

New Load.load_p1ulv136 conn=wye bus1=p1ulv136.1.2 kV=0.2080002494301389 Vminpu=0.8 Vmaxpu=1.2 model=1 kW=19.6301 kvar=0.9401717516684716 Phases=2

New Load.load_p1ulv137 conn=wye bus1=p1ulv137.1.2 kV=0.2080002494301389 Vminpu=0.8 Vmaxpu=1.2 model=1 kW=16.48 kvar=0.2997535676176835 Phases=2

New Load.load_p1ulv138 conn=wye bus1=p1ulv138.1.2 kV=0.2080002494301389 Vminpu=0.8 Vmaxpu=1.2 model=1 kW=17.91 kvar=0.5893824192907394 Phases=2

New Load.load_p1ulv139 conn=wye bus1=p1ulv139.1.2 kV=0.2080002494301389 Vminpu=0.8 Vmaxpu=1.2 model=1 kW=19.5601 kvar=0.9307188593475932 Phases=2

New Load.load_p1ulv140 conn=wye bus1=p1ulv140.1.2 kV=0.2080002494301389 Vminpu=0.8 Vmaxpu=1.2 model=1 kW=34.4602 kvar=3.95156214766985 Phases=2

New Load.load_p1ulv141 conn=wye bus1=p1ulv141.1.2 kV=0.2080002494301389 Vminpu=0.8 Vmaxpu=1.2 model=1 kW=17.02 kvar=0.4101825556539014 Phases=2

New Load.load_p1ulv142 conn=wye bus1=p1ulv142.1.2 kV=0.2080002494301389 Vminpu=0.8 Vmaxpu=1.2 model=1 kW=21.4001 kvar=1.2995876115772655 Phases=2

New Load.load_p1ulv143 conn=wye bus1=p1ulv143.1.2 kV=0.2080002494301389 Vminpu=0.8 Vmaxpu=1.2 model=1 kW=17.94 kvar=0.6000682817178988 Phases=2

New Load.load_p1ulv144 conn=wye bus1=p1ulv144.1.2 kV=0.2080002494301389 Vminpu=0.8 Vmaxpu=1.2 model=1 kW=17.98 kvar=0.6004270372747549 Phases=2

New Load.load_p1ulv145 conn=wye bus1=p1ulv145.1.2 kV=0.2080002494301389 Vminpu=0.8 Vmaxpu=1.2 model=1 kW=21.2601 kvar=1.2711593990885048 Phases=2

New Load.load_p1ulv1541 conn=wye bus1=p1ulv1541.1.2 kV=0.2080002494301389 Vminpu=0.8 Vmaxpu=1.2 model=1 kW=18.41 kvar=0.6906498322195993 Phases=2

New Load.load_p1ulv1543 conn=wye bus1=p1ulv1543.1.2 kV=0.2080002494301389 Vminpu=0.8 Vmaxpu=1.2 model=1 kW=19.35 kvar=0.8810345938741143 Phases=2

New Load.load_p1ulv1545 conn=wye bus1=p1ulv1545.1.2.3 kV=0.48 Vminpu=0.8 Vmaxpu=1.2 model=1 kW=43.9603 kvar=5.880639729558955 Phases=3

New Load.load_p1ulv1547 conn=wye bus1=p1ulv1547.1.2 kV=0.2080002494301389 Vminpu=0.8 Vmaxpu=1.2 model=1 kW=19.51 kvar=0.9205137205953031 Phases=2

New Load.load_p1ulv1548 conn=wye bus1=p1ulv1548.1.2 kV=0.2080002494301389 Vminpu=0.8 Vmaxpu=1.2 model=1 kW=18.26 kvar=0.6602696083409414 Phases=2

New Load.load_p1ulv1550 conn=wye bus1=p1ulv1550.1.2 kV=0.2080002494301389 Vminpu=0.8 Vmaxpu=1.2 model=1 kW=18.69 kvar=0.7492945800859013 Phases=2

New Load.load_p1ulv1551 conn=wye bus1=p1ulv1551.1.2.3 kV=0.48 Vminpu=0.8 Vmaxpu=1.2 model=1 kW=67.8705 kvar=10.735812917050124 Phases=3

New Load.load_p1ulv1552 conn=wye bus1=p1ulv1552.1.2 kV=0.2080002494301389 Vminpu=0.8 Vmaxpu=1.2 model=1 kW=19.29 kvar=0.8711297764663039 Phases=2

New Load.load_p1ulv1560 conn=wye bus1=p1ulv1560.1.2 kV=0.2080002494301389 Vminpu=0.8 Vmaxpu=1.2 model=1 kW=19.49 kvar=0.9093894694941951 Phases=2

New Load.load_p1ulv1561 conn=wye bus1=p1ulv1561.1.2 kV=0.2080002494301389 Vminpu=0.8 Vmaxpu=1.2 model=1 kW=18.25 kvar=0.659946738820333 Phases=2

New Load.load_p1ulv1562 conn=wye bus1=p1ulv1562.1.2 kV=0.2080002494301389 Vminpu=0.8 Vmaxpu=1.2 model=1 kW=18.44 kvar=0.7003258045487328 Phases=2

New Load.load_p1ulv1568 conn=wye bus1=p1ulv1568.1.2 kV=0.2080002494301389 Vminpu=0.8 Vmaxpu=1.2 model=1 kW=20.0701 kvar=1.0295175623474335 Phases=2

New Load.load_p1ulv1569 conn=wye bus1=p1ulv1569.1.2 kV=0.2080002494301389 Vminpu=0.8 Vmaxpu=1.2 model=1 kW=23.9101 kvar=1.8092709415284354 Phases=2

New Load.load_p1ulv1894 conn=wye bus1=p1ulv1894.1.2 kV=0.2080002494301389 Vminpu=0.8 Vmaxpu=1.2 model=1 kW=19.41 kvar=0.900101402062973 Phases=2

New Load.load_p1ulv1895 conn=wye bus1=p1ulv1895.1.2 kV=0.2080002494301389 Vminpu=0.8 Vmaxpu=1.2 model=1 kW=18.33 kvar=0.6796683639857601 Phases=2

New Load.load_p1ulv1896 conn=wye bus1=p1ulv1896.1.2.3 kV=0.48 Vminpu=0.8 Vmaxpu=1.2 model=1 kW=80.0407 kvar=13.207077428698085 Phases=3

New Load.load_p1ulv1922 conn=wye bus1=p1ulv1922.1.2.3 kV=0.48 Vminpu=0.8 Vmaxpu=1.2 model=1 kW=172.612 kvar=32.00448161984668 Phases=3

New Load.load_p1ulv1923 conn=wye bus1=p1ulv1923.1.2.3 kV=0.48 Vminpu=0.8 Vmaxpu=1.2 model=1 kW=121.971 kvar=21.721387986680075 Phases=3

New Load.load_p1ulv1924 conn=wye bus1=p1ulv1924.1.2.3 kV=0.48 Vminpu=0.8 Vmaxpu=1.2 model=1 kW=101.5309 kvar=17.57084865745496 Phases=3

New Load.load_p1ulv1925 conn=wye bus1=p1ulv1925.1.2 kV=0.2080002494301389 Vminpu=0.8 Vmaxpu=1.2 model=1 kW=16.99 kvar=0.39990665650064394 Phases=2

New Load.load_p1ulv1926 conn=wye bus1=p1ulv1926.1.2.3 kV=0.48 Vminpu=0.8 Vmaxpu=1.2 model=1 kW=220.912 kvar=41.81221492846908 Phases=3

New Load.load_p1ulv1927 conn=wye bus1=p1ulv1927.1.2 kV=0.2080002494301389 Vminpu=0.8 Vmaxpu=1.2 model=1 kW=22.0101 kvar=1.419783306700424 Phases=2

New Load.load_p1ulv1928 conn=wye bus1=p1ulv1928.1.2 kV=0.2080002494301389 Vminpu=0.8 Vmaxpu=1.2 model=1 kW=20.28 kvar=1.069394007270052 Phases=2

New Load.load_p1ulv1929 conn=wye bus1=p1ulv1929.1.2 kV=0.2080002494301389 Vminpu=0.8 Vmaxpu=1.2 model=1 kW=26.1801 kvar=2.2702161317542315 Phases=2

New Load.load_p1ulv1930 conn=wye bus1=p1ulv1930.1.2 kV=0.2080002494301389 Vminpu=0.8 Vmaxpu=1.2 model=1 kW=19.28 kvar=0.8690991898599637 Phases=2

New Load.load_p1ulv1931 conn=wye bus1=p1ulv1931.1.2 kV=0.2080002494301389 Vminpu=0.8 Vmaxpu=1.2 model=1 kW=19.04 kvar=0.8203651113078028 Phases=2

New Load.load_p1ulv3988 conn=wye bus1=p1ulv3988.1.2 kV=0.2080002494301389 Vminpu=0.8 Vmaxpu=1.2 model=1 kW=1.38001 kvar=0.28022298226153225 Phases=2

New Load.load_p1ulv3989 conn=wye bus1=p1ulv3989.1.2 kV=0.2080002494301389 Vminpu=0.8 Vmaxpu=1.2 model=1 kW=1.47001 kvar=0.3000331203450741 Phases=2

New Load.load_p1ulv3990 conn=wye bus1=p1ulv3990.1.2 kV=0.2080002494301389 Vminpu=0.8 Vmaxpu=1.2 model=1 kW=1.38001 kvar=0.28022298226153225 Phases=2

New Load.load_p1ulv3991 conn=wye bus1=p1ulv3991.1.2 kV=0.2080002494301389 Vminpu=0.8 Vmaxpu=1.2 model=1 kW=1.38001 kvar=0.28022298226153225 Phases=2

New Load.load_p1ulv3992 conn=wye bus1=p1ulv3992.1.2 kV=0.2080002494301389 Vminpu=0.8 Vmaxpu=1.2 model=1 kW=1.38001 kvar=0.28022298226153225 Phases=2

New Load.load_p1ulv3993 conn=wye bus1=p1ulv3992.1.2 kV=0.2080002494301389 Vminpu=0.8 Vmaxpu=1.2 model=1 kW=1.38001 kvar=0.28022298226153225 Phases=2

New Load.load_p1ulv3994 conn=wye bus1=p1ulv3994.1.2 kV=0.2080002494301389 Vminpu=0.8 Vmaxpu=1.2 model=1 kW=1.38001 kvar=0.28022298226153225 Phases=2

New Load.load_p1ulv3995 conn=wye bus1=p1ulv3994.1.2 kV=0.2080002494301389 Vminpu=0.8 Vmaxpu=1.2 model=1 kW=1.38001 kvar=0.28022298226153225 Phases=2

New Load.load_p1ulv3996 conn=wye bus1=p1ulv3996.1.2 kV=0.2080002494301389 Vminpu=0.8 Vmaxpu=1.2 model=1 kW=1.38001 kvar=0.28022298226153225 Phases=2

New Load.load_p1ulv3997 conn=wye bus1=p1ulv3997.1.2 kV=0.2080002494301389 Vminpu=0.8 Vmaxpu=1.2 model=1 kW=1.38001 kvar=0.28022298226153225 Phases=2

New Load.load_p1ulv3998 conn=wye bus1=p1ulv3997.1.2 kV=0.2080002494301389 Vminpu=0.8 Vmaxpu=1.2 model=1 kW=1.38001 kvar=0.28022298226153225 Phases=2

New Load.load_p1ulv3999 conn=wye bus1=p1ulv3999.1.2 kV=0.2080002494301389 Vminpu=0.8 Vmaxpu=1.2 model=1 kW=1.38001 kvar=0.28022298226153225 Phases=2

New Load.load_p1ulv4453 conn=wye bus1=p1ulv4453.1.2 kV=0.2080002494301389 Vminpu=0.8 Vmaxpu=1.2 model=1 kW=10.35 kvar=0.5802128332421591 Phases=2

New Load.load_p1ulv8813 conn=wye bus1=p1ulv8813.1.2 kV=0.2080002494301389 Vminpu=0.8 Vmaxpu=1.2 model=1 kW=3.7100400000000002 kvar=0.7494644148777485 Phases=2

New Load.load_p1ulv8814 conn=wye bus1=p1ulv8814.1.2 kV=0.2080002494301389 Vminpu=0.8 Vmaxpu=1.2 model=1 kW=3.74004 kvar=0.7594475131176014 Phases=2

New Load.load_p1ulv11833 conn=wye bus1=p1ulv11833.1.2 kV=0.2080002494301389 Vminpu=0.8 Vmaxpu=1.2 model=1 kW=18.28 kvar=0.6694632252334703 Phases=2

New Load.load_p1ulv11834 conn=wye bus1=p1ulv11834.1.2 kV=0.2080002494301389 Vminpu=0.8 Vmaxpu=1.2 model=1 kW=18.44 kvar=0.7003258045487328 Phases=2

New Load.load_p1ulv11835 conn=wye bus1=p1ulv11835.1.2 kV=0.2080002494301389 Vminpu=0.8 Vmaxpu=1.2 model=1 kW=17.78 kvar=0.5601303263507202 Phases=2

New Load.load_p1ulv11836 conn=wye bus1=p1ulv11836.1.2 kV=0.2080002494301389 Vminpu=0.8 Vmaxpu=1.2 model=1 kW=18.25 kvar=0.659946738820333 Phases=2

New Load.load_p1ulv11837 conn=wye bus1=p1ulv11837.1.2 kV=0.2080002494301389 Vminpu=0.8 Vmaxpu=1.2 model=1 kW=17.46 kvar=0.49952836633286324 Phases=2

New Load.load_p1ulv12630 conn=wye bus1=p1ulv12630.1.2 kV=0.2080002494301389 Vminpu=0.8 Vmaxpu=1.2 model=1 kW=18.2 kvar=0.6497938057886328 Phases=2

New Load.load_p1ulv12631 conn=wye bus1=p1ulv12631.1.2 kV=0.2080002494301389 Vminpu=0.8 Vmaxpu=1.2 model=1 kW=18.04 kvar=0.6204785592224786 Phases=2

New Load.load_p1ulv12634 conn=wye bus1=p1ulv12634.1.2 kV=0.2080002494301389 Vminpu=0.8 Vmaxpu=1.2 model=1 kW=18.03 kvar=0.6200140497357622 Phases=2

New Load.load_p1ulv12636 conn=wye bus1=p1ulv12636.1.2 kV=0.2080002494301389 Vminpu=0.8 Vmaxpu=1.2 model=1 kW=19.15 kvar=0.8405276287025704 Phases=2

New Load.load_p1ulv12645 conn=wye bus1=p1ulv12645.1.2 kV=0.2080002494301389 Vminpu=0.8 Vmaxpu=1.2 model=1 kW=19.14 kvar=1.3592956687066866 Phases=2

New Load.load_p1ulv14604 conn=wye bus1=p1ulv14604.1.2 kV=0.2080002494301389 Vminpu=0.8 Vmaxpu=1.2 model=1 kW=16.73 kvar=0.350389299430372 Phases=2

New Load.load_p1ulv14608 conn=wye bus1=p1ulv14608.1.2 kV=0.2080002494301389 Vminpu=0.8 Vmaxpu=1.2 model=1 kW=18.01 kvar=0.6096359018765115 Phases=2

New Load.load_p1ulv14610 conn=wye bus1=p1ulv14610.1.2 kV=0.2080002494301389 Vminpu=0.8 Vmaxpu=1.2 model=1 kW=18.3 kvar=0.6700996718520332 Phases=2

New Load.load_p1ulv14611 conn=wye bus1=p1ulv14611.1.2 kV=0.2080002494301389 Vminpu=0.8 Vmaxpu=1.2 model=1 kW=18 kvar=0.6107500293370508 Phases=2

New Load.load_p1ulv14612 conn=wye bus1=p1ulv14612.1.2 kV=0.2080002494301389 Vminpu=0.8 Vmaxpu=1.2 model=1 kW=16.38 kvar=0.28022298226153225 Phases=2

New Load.load_p1ulv14616 conn=wye bus1=p1ulv14616.1.2 kV=0.2080002494301389 Vminpu=0.8 Vmaxpu=1.2 model=1 kW=18.77 kvar=0.7596010602602379 Phases=2

New Load.load_p1ulv26024 conn=wye bus1=p1ulv26024.1.2 kV=0.2080002494301389 Vminpu=0.8 Vmaxpu=1.2 model=1 kW=3.9400400000000007 kvar=0.8000592452444024 Phases=2

New Load.load_p1ulv26027 conn=wye bus1=p1ulv26027.1.2 kV=0.2080002494301389 Vminpu=0.8 Vmaxpu=1.2 model=1 kW=3.91004 kvar=0.7898663736101474 Phases=2

New Load.load_p1ulv26072 conn=wye bus1=p1ulv26072.1.2 kV=0.2080002494301389 Vminpu=0.8 Vmaxpu=1.2 model=1 kW=3.79004 kvar=0.7696004461493017 Phases=2

New Load.load_p1ulv26086 conn=wye bus1=p1ulv26086.1.2 kV=0.2080002494301389 Vminpu=0.8 Vmaxpu=1.2 model=1 kW=4.30004 kvar=0.8709078525812284 Phases=2

New Load.load_p1ulv26091 conn=wye bus1=p1ulv26091.1.2 kV=0.2080002494301389 Vminpu=0.8 Vmaxpu=1.2 model=1 kW=3.38003 kvar=0.6898735027380501 Phases=2

New Load.load_p1ulv26093 conn=wye bus1=p1ulv26093.1.2 kV=0.2080002494301389 Vminpu=0.8 Vmaxpu=1.2 model=1 kW=3.7500400000000003 kvar=0.7595136983594827 Phases=2

New Load.load_p1ulv26152 conn=wye bus1=p1ulv26152.1.2 kV=0.2080002494301389 Vminpu=0.8 Vmaxpu=1.2 model=1 kW=5.33005 kvar=1.0795207485629381 Phases=2

New Load.load_p1ulv26158 conn=wye bus1=p1ulv26158.1.2 kV=0.2080002494301389 Vminpu=0.8 Vmaxpu=1.2 model=1 kW=2.79003 kvar=0.569452865461029 Phases=2

New Load.load_p1ulv26222 conn=wye bus1=p1ulv26222.1.2 kV=0.2080002494301389 Vminpu=0.8 Vmaxpu=1.2 model=1 kW=3.65004 kvar=0.7392602157737106 Phases=2

New Load.load_p1ulv26226 conn=wye bus1=p1ulv26226.1.2 kV=0.2080002494301389 Vminpu=0.8 Vmaxpu=1.2 model=1 kW=3.17003 kvar=0.6403771062023346 Phases=2

New Load.load_p1ulv26228 conn=wye bus1=p1ulv26228.1.2 kV=0.2080002494301389 Vminpu=0.8 Vmaxpu=1.2 model=1 kW=3.66004 kvar=0.7393639251946486 Phases=2

New Load.load_p1ulv26273 conn=wye bus1=p1ulv26273.1.2.3 kV=0.48 Vminpu=0.8 Vmaxpu=1.2 model=1 kW=41.6304 kvar=8.453413265657852 Phases=3

New Load.load_p1ulv26290 conn=wye bus1=p1ulv26290.1.2 kV=0.2080002494301389 Vminpu=0.8 Vmaxpu=1.2 model=1 kW=2.92003 kvar=0.5898746577868357 Phases=2

New Load.load_p1ulv26293 conn=wye bus1=p1ulv26293.1.2 kV=0.2080002494301389 Vminpu=0.8 Vmaxpu=1.2 model=1 kW=3.17003 kvar=0.6403771062023346 Phases=2

New Load.load_p1ulv26339 conn=wye bus1=p1ulv26339.1.2.3 kV=0.48 Vminpu=0.8 Vmaxpu=1.2 model=1 kW=77.3708 kvar=15.71081102018142 Phases=3

New Load.load_p1ulv26357 conn=wye bus1=p1ulv26357.1.2 kV=0.2080002494301389 Vminpu=0.8 Vmaxpu=1.2 model=1 kW=3.12003 kvar=0.6302766165192346 Phases=2

New Load.load_p1ulv26362 conn=wye bus1=p1ulv26362.1.2 kV=0.2080002494301389 Vminpu=0.8 Vmaxpu=1.2 model=1 kW=3.53004 kvar=0.7204909600226704 Phases=2

New Load.load_p1ulv26365 conn=wye bus1=p1ulv26365.1.2 kV=0.2080002494301389 Vminpu=0.8 Vmaxpu=1.2 model=1 kW=2.79003 kvar=0.569452865461029 Phases=2

New Load.load_p1ulv26419 conn=wye bus1=p1ulv26419.1.2.3 kV=0.48 Vminpu=0.8 Vmaxpu=1.2 model=1 kW=118.81100000000002 kvar=24.125602528586686 Phases=3

New Load.load_p1ulv26434 conn=wye bus1=p1ulv26434.1.2 kV=0.2080002494301389 Vminpu=0.8 Vmaxpu=1.2 model=1 kW=3.3000300000000005 kvar=0.6700996718520332 Phases=2

New Load.load_p1ulv26441 conn=wye bus1=p1ulv26441.1.2 kV=0.2080002494301389 Vminpu=0.8 Vmaxpu=1.2 model=1 kW=9.09009 kvar=1.8505724056680872 Phases=2

New Load.load_p1ulv26484 conn=wye bus1=p1ulv26484.1.2 kV=0.2080002494301389 Vminpu=0.8 Vmaxpu=1.2 model=1 kW=4.450040000000001 kvar=0.898951662187625 Phases=2

New Load.load_p1ulv26501 conn=wye bus1=p1ulv26501.1.2 kV=0.2080002494301389 Vminpu=0.8 Vmaxpu=1.2 model=1 kW=3.27003 kvar=0.660578085568534 Phases=2

New Load.load_p1ulv26503 conn=wye bus1=p1ulv26503.1.2 kV=0.2080002494301389 Vminpu=0.8 Vmaxpu=1.2 model=1 kW=3.39003 kvar=0.6901467391837689 Phases=2

New Load.load_p1ulv26506 conn=wye bus1=p1ulv26506.1.2 kV=0.2080002494301389 Vminpu=0.8 Vmaxpu=1.2 model=1 kW=19.0402 kvar=3.866277510203568 Phases=2

New Load.load_p1ulv26509 conn=wye bus1=p1ulv26509.1.2 kV=0.2080002494301389 Vminpu=0.8 Vmaxpu=1.2 model=1 kW=3.68004 kvar=0.7491873541136322 Phases=2

New Load.load_p1ulv26551 conn=wye bus1=p1ulv26551.1.2.3 kV=0.48 Vminpu=0.8 Vmaxpu=1.2 model=1 kW=165.93200000000002 kvar=33.693929676321595 Phases=3

New Load.load_p1ulv26572 conn=wye bus1=p1ulv26572.1.2 kV=0.2080002494301389 Vminpu=0.8 Vmaxpu=1.2 model=1 kW=19.5102 kvar=3.9617150807015507 Phases=2

New Load.load_p1ulv26576 conn=wye bus1=p1ulv26576.1.2 kV=0.2080002494301389 Vminpu=0.8 Vmaxpu=1.2 model=1 kW=3.64004 kvar=0.739141647054201 Phases=2

New Load.load_p1ulv26579 conn=wye bus1=p1ulv26579.1.2 kV=0.2080002494301389 Vminpu=0.8 Vmaxpu=1.2 model=1 kW=3.52004 kvar=0.7092301716051945 Phases=2

New Load.load_p1ulv26662 conn=wye bus1=p1ulv26662.1.2 kV=0.2080002494301389 Vminpu=0.8 Vmaxpu=1.2 model=1 kW=3.9600400000000002 kvar=0.7999668632932473 Phases=2

New Load.load_p1ulv26665 conn=wye bus1=p1ulv26665.1.2 kV=0.2080002494301389 Vminpu=0.8 Vmaxpu=1.2 model=1 kW=3.44003 kvar=0.7003258045487328 Phases=2

New Load.load_p1ulv26711 conn=wye bus1=p1ulv26711.1.2 kV=0.2080002494301389 Vminpu=0.8 Vmaxpu=1.2 model=1 kW=4.14004 kvar=1.3592956687066866 Phases=2

New Load.load_p1ulv26724 conn=wye bus1=p1ulv26724.1.2 kV=0.2080002494301389 Vminpu=0.8 Vmaxpu=1.2 model=1 kW=2.93003 kvar=0.5903528595437461 Phases=2

New Load.load_p1ulv26727 conn=wye bus1=p1ulv26727.1.2 kV=0.2080002494301389 Vminpu=0.8 Vmaxpu=1.2 model=1 kW=10.9401 kvar=2.22148205320207 Phases=2

New Load.load_p1ulv26729 conn=wye bus1=p1ulv26729.1.2 kV=0.2080002494301389 Vminpu=0.8 Vmaxpu=1.2 model=1 kW=3.34003 kvar=0.679967673818805 Phases=2

New Load.load_p1ulv26795 conn=wye bus1=p1ulv26795.1.2 kV=0.2080002494301389 Vminpu=0.8 Vmaxpu=1.2 model=1 kW=19.180200000000003 kvar=3.8947057226923296 Phases=2

New Load.load_p1ulv26798 conn=wye bus1=p1ulv26798.1.2 kV=0.2080002494301389 Vminpu=0.8 Vmaxpu=1.2 model=1 kW=3.7100400000000002 kvar=0.7494644148777485 Phases=2

New Load.load_p1ulv26865 conn=wye bus1=p1ulv26865.1.2 kV=0.2080002494301389 Vminpu=0.8 Vmaxpu=1.2 model=1 kW=3.3000300000000005 kvar=0.6700996718520332 Phases=2

New Load.load_p1ulv26878 conn=wye bus1=p1ulv26878.1.2 kV=0.2080002494301389 Vminpu=0.8 Vmaxpu=1.2 model=1 kW=3.78004 kvar=0.7695454848435601 Phases=2

New Load.load_p1ulv26880 conn=wye bus1=p1ulv26880.1.2 kV=0.2080002494301389 Vminpu=0.8 Vmaxpu=1.2 model=1 kW=14.0601 kvar=2.8476599050421227 Phases=2

New Load.load_p1ulv26883 conn=wye bus1=p1ulv26883.1.2 kV=0.2080002494301389 Vminpu=0.8 Vmaxpu=1.2 model=1 kW=3.37003 kvar=0.6807790649347335 Phases=2

New Load.load_p1ulv26885 conn=wye bus1=p1ulv26885.1.2 kV=0.2080002494301389 Vminpu=0.8 Vmaxpu=1.2 model=1 kW=3.2600300000000004 kvar=0.6602696083409414 Phases=2

New Load.load_p1ulv26953 conn=wye bus1=p1ulv26953.1.2 kV=0.2080002494301389 Vminpu=0.8 Vmaxpu=1.2 model=1 kW=1.68002 kvar=0.34026255813748596 Phases=2

New Load.load_p1ulv26957 conn=wye bus1=p1ulv26957.1.2.3 kV=0.48 Vminpu=0.8 Vmaxpu=1.2 model=1 kW=28.300299999999996 kvar=5.746621013540511 Phases=3

New Load.load_p1ulv26960 conn=wye bus1=p1ulv26579.1.2 kV=0.2080002494301389 Vminpu=0.8 Vmaxpu=1.2 model=1 kW=2.33002 kvar=0.469460711936096 Phases=2

New Load.load_p1ulv27003 conn=wye bus1=p1ulv27003.1.2 kV=0.2080002494301389 Vminpu=0.8 Vmaxpu=1.2 model=1 kW=3.56004 kvar=0.7191629458284491 Phases=2

New Load.load_p1ulv27014 conn=wye bus1=p1ulv27014.1.2 kV=0.2080002494301389 Vminpu=0.8 Vmaxpu=1.2 model=1 kW=3.16003 kvar=0.6400161257551694 Phases=2

New Load.load_p1ulv27016 conn=wye bus1=p1ulv27016.1.2 kV=0.2080002494301389 Vminpu=0.8 Vmaxpu=1.2 model=1 kW=16.6502 kvar=3.3809673112882983 Phases=2

New Load.load_p1ulv27019 conn=wye bus1=p1ulv27019.1.2 kV=0.2080002494301389 Vminpu=0.8 Vmaxpu=1.2 model=1 kW=3.33003 kvar=0.6796683639857601 Phases=2

New Load.load_p1ulv27093 conn=wye bus1=p1ulv27093.1.2 kV=0.2080002494301389 Vminpu=0.8 Vmaxpu=1.2 model=1 kW=5.36005 kvar=1.091205986189491 Phases=2

New Load.load_p1ulv27094 conn=wye bus1=p1ulv27094.1.2 kV=0.2080002494301389 Vminpu=0.8 Vmaxpu=1.2 model=1 kW=3.60004 kvar=0.7291334744808246 Phases=2

New Load.load_p1ulv27096 conn=wye bus1=p1ulv27096.1.2 kV=0.2080002494301389 Vminpu=0.8 Vmaxpu=1.2 model=1 kW=2.5500300000000005 kvar=0.5204681994500374 Phases=2

New Load.load_p1ulv27099 conn=wye bus1=p1ulv27099.1.2 kV=0.2080002494301389 Vminpu=0.8 Vmaxpu=1.2 model=1 kW=3.63004 kvar=0.7409012375272501 Phases=2

New Load.load_p1ulv27167 conn=wye bus1=p1ulv27167.1.2 kV=0.2080002494301389 Vminpu=0.8 Vmaxpu=1.2 model=1 kW=4.2400400000000005 kvar=0.8609768434346036 Phases=2

New Load.load_p1ulv27174 conn=wye bus1=p1ulv27174.1.2 kV=0.2080002494301389 Vminpu=0.8 Vmaxpu=1.2 model=1 kW=4.08004 kvar=0.8306198770333432 Phases=2

New Load.load_p1ulv27177 conn=wye bus1=p1ulv27177.1.2 kV=0.2080002494301389 Vminpu=0.8 Vmaxpu=1.2 model=1 kW=3.54004 kvar=0.7206859710917335 Phases=2

New Load.load_p1ulv27218 conn=wye bus1=p1ulv27218.1.2.3 kV=0.48 Vminpu=0.8 Vmaxpu=1.2 model=1 kW=93.3709 kvar=18.959769896191553 Phases=3

New Load.load_p1ulv27232 conn=wye bus1=p1ulv27232.1.2 kV=0.2080002494301389 Vminpu=0.8 Vmaxpu=1.2 model=1 kW=3.2800300000000004 kvar=0.6694632252334703 Phases=2

New Load.load_p1ulv27233 conn=wye bus1=p1ulv27233.1.2 kV=0.2080002494301389 Vminpu=0.8 Vmaxpu=1.2 model=1 kW=3.09003 kvar=0.6306836979747686 Phases=2

New Load.load_p1ulv27271 conn=wye bus1=p1ulv27271.1.2 kV=0.2080002494301389 Vminpu=0.8 Vmaxpu=1.2 model=1 kW=3.56004 kvar=0.7191629458284491 Phases=2

New Load.load_p1ulv27274 conn=wye bus1=p1ulv27274.1.2 kV=0.2080002494301389 Vminpu=0.8 Vmaxpu=1.2 model=1 kW=3.63004 kvar=0.7409012375272501 Phases=2

New Load.load_p1ulv27277 conn=wye bus1=p1ulv27277.1.2 kV=0.2080002494301389 Vminpu=0.8 Vmaxpu=1.2 model=1 kW=2.5100300000000004 kvar=0.5096833299511698 Phases=2
