New Line.l(r:p1ulv58733-udt401lv) Units=km Length=0.0273589 bus1=udt401lv.1.2 bus2=p1ulv58733.1.2 switch=n enabled=y phases=2 Linecode=1P_UG_AL_1/0_Brenau_0_416_0_2_2

New Line.l(r:p1ulv822-udm1567) Units=km Length=0.0290511 bus1=udm1567.1.2 bus2=p1ulv822.1.2 switch=n enabled=y phases=2 Linecode=1P_UG_AL_1/0_Brenau_0_416_0_2_2

New Line.l(r:p1ulv48705-udm1567) Units=km Length=0.0263216 bus1=udm1567.1.2 bus2=p1ulv48705.1.2 switch=n enabled=y phases=2 Linecode=1P_UG_AL_1/0_Brenau_0_416_0_2_2

New Line.l(r:p1ulv60422-udm1567) Units=km Length=0.028043200000000004 bus1=udm1567.1.2 bus2=p1ulv60422.1.2 switch=n enabled=y phases=2 Linecode=1P_UG_AL_1/0_Brenau_0_416_0_2_2

New Line.l(r:udm1567-udt401lv) Units=km Length=0.0087355 bus1=udt401lv.1.2 bus2=udm1567.1.2 switch=n enabled=y phases=2 Linecode=1P_UG_AL_4/0_Sweetbriar_0_416_0_2_2

New Line.l(r:p1ulv46274-udm1569) Units=km Length=0.0174326 bus1=udm1569.1.2 bus2=p1ulv46274.1.2 switch=n enabled=y phases=2 Linecode=1P_UG_AL_1/0_Brenau_0_416_0_2_2

New Line.l(r:p1ulv43787-udm1568) Units=km Length=0.0189146 bus1=udm1568.1.2 bus2=p1ulv43787.1.2 switch=n enabled=y phases=2 Linecode=1P_UG_AL_1/0_Brenau_0_416_0_2_2

New Line.l(r:udm1568-udm1569) Units=km Length=0.0262578 bus1=udm1569.1.2 bus2=udm1568.1.2 switch=n enabled=y phases=2 Linecode=1P_UG_AL_1/0_Brenau_0_416_0_2_2

New Line.l(r:udm1569-udt401lv) Units=km Length=0.0707003 bus1=udt401lv.1.2 bus2=udm1569.1.2 switch=n enabled=y phases=2 Linecode=1P_UG_AL_1/0_Brenau_0_416_0_2_2

New Line.l(r:p1ulv51963-udt472lv) Units=km Length=0.0189365 bus1=udt472lv.1.2 bus2=p1ulv51963.1.2 switch=n enabled=y phases=2 Linecode=1P_UG_AL_1/0_Brenau_0_416_0_2_2

New Line.l(r:p1ulv53111-udm1863) Units=km Length=0.020733700000000004 bus1=udm1863.1.2 bus2=p1ulv53111.1.2 switch=n enabled=y phases=2 Linecode=1P_UG_AL_1/0_Brenau_0_416_0_2_2

New Line.l(r:p1ulv902-udm1860) Units=km Length=0.0218223 bus1=udm1860.1.2 bus2=p1ulv902.1.2 switch=n enabled=y phases=2 Linecode=1P_UG_AL_1/0_Brenau_0_416_0_2_2

New Line.l(r:p1ulv55206-udm1865) Units=km Length=0.0203098 bus1=udm1865.1.2 bus2=p1ulv55206.1.2 switch=n enabled=y phases=2 Linecode=1P_UG_AL_1/0_Brenau_0_416_0_2_2

New Line.l(r:udm1860-udm1865) Units=km Length=0.00971525 bus1=udm1860.1.2 bus2=udm1865.1.2 switch=n enabled=y phases=2 Linecode=1P_UG_AL_1/0_Brenau_0_416_0_2_2

New Line.l(r:udm1860-udm1863) Units=km Length=0.00971525 bus1=udm1863.1.2 bus2=udm1860.1.2 switch=n enabled=y phases=2 Linecode=1P_UG_AL_1/0_Brenau_0_416_0_2_2

New Line.l(r:udm1863-udt472lv) Units=km Length=0.00971525 bus1=udt472lv.1.2 bus2=udm1863.1.2 switch=n enabled=y phases=2 Linecode=1P_UG_AL_1/0_Brenau_0_416_0_2_2

New Line.l(r:p1ulv55478-udm1866) Units=km Length=0.0200629 bus1=udm1866.1.2 bus2=p1ulv55478.1.2 switch=n enabled=y phases=2 Linecode=1P_UG_AL_1/0_Brenau_0_416_0_2_2

New Line.l(r:p1ulv53409-udm1864) Units=km Length=0.0206274 bus1=udm1864.1.2 bus2=p1ulv53409.1.2 switch=n enabled=y phases=2 Linecode=1P_UG_AL_1/0_Brenau_0_416_0_2_2

New Line.l(r:p1ulv57865-udm1864) Units=km Length=0.0168949 bus1=udm1864.1.2 bus2=p1ulv57865.1.2 switch=n enabled=y phases=2 Linecode=1P_UG_AL_1/0_Brenau_0_416_0_2_2

New Line.l(r:p1ulv52029-udm1862) Units=km Length=0.0169303 bus1=udm1862.1.2 bus2=p1ulv52029.1.2 switch=n enabled=y phases=2 Linecode=1P_UG_AL_1/0_Brenau_0_416_0_2_2

New Line.l(r:udm1862-udm1864) Units=km Length=0.00971598 bus1=udm1864.1.2 bus2=udm1862.1.2 switch=n enabled=y phases=2 Linecode=1P_UG_AL_1/0_Brenau_0_416_0_2_2

New Line.l(r:udm1864-udm1866) Units=km Length=0.00971525 bus1=udm1866.1.2 bus2=udm1864.1.2 switch=n enabled=y phases=2 Linecode=1P_UG_AL_2/0_Converse_0_416_0_2_2

New Line.l(r:udm1866-udt472lv) Units=km Length=0.00970528 bus1=udt472lv.1.2 bus2=udm1866.1.2 switch=n enabled=y phases=2 Linecode=1P_UG_AL_4/0_Sweetbriar_0_416_0_2_2

New Line.l(r:p1ulv903-udm1868) Units=km Length=0.0096581 bus1=udm1868.1.2 bus2=p1ulv903.1.2 switch=n enabled=y phases=2 Linecode=1P_UG_AL_1/0_Brenau_0_416_0_2_2

New Line.l(r:p1ulv56229-udm1871) Units=km Length=0.0177928 bus1=udm1871.1.2 bus2=p1ulv56229.1.2 switch=n enabled=y phases=2 Linecode=1P_UG_AL_1/0_Brenau_0_416_0_2_2

New Line.l(r:p1ulv53395-udm1870) Units=km Length=0.0157348 bus1=udm1870.1.2 bus2=p1ulv53395.1.2 switch=n enabled=y phases=2 Linecode=1P_UG_AL_1/0_Brenau_0_416_0_2_2

New Line.l(r:udm1870-udm1871) Units=km Length=0.00796043 bus1=udm1871.1.2 bus2=udm1870.1.2 switch=n enabled=y phases=2 Linecode=1P_UG_AL_1/0_Brenau_0_416_0_2_2

New Line.l(r:udm1868-udm1871) Units=km Length=0.0168046 bus1=udm1868.1.2 bus2=udm1871.1.2 switch=n enabled=y phases=2 Linecode=1P_UG_AL_1/0_Brenau_0_416_0_2_2

New Line.l(r:udm1868-udt473lv) Units=km Length=0.008406490000000003 bus1=udt473lv.1.2 bus2=udm1868.1.2 switch=n enabled=y phases=2 Linecode=1P_UG_AL_4/0_Sweetbriar_0_416_0_2_2

New Line.l(r:p1ulv52796-udm1869) Units=km Length=0.0193629 bus1=udm1869.1.2 bus2=p1ulv52796.1.2 switch=n enabled=y phases=2 Linecode=1P_UG_AL_1/0_Brenau_0_416_0_2_2

New Line.l(r:p1ulv56868-udm1872) Units=km Length=0.016134 bus1=udm1872.1.2 bus2=p1ulv56868.1.2 switch=n enabled=y phases=2 Linecode=1P_UG_AL_1/0_Brenau_0_416_0_2_2

New Line.l(r:udm1869-udm1872) Units=km Length=0.0199793 bus1=udm1869.1.2 bus2=udm1872.1.2 switch=n enabled=y phases=2 Linecode=1P_UG_AL_1/0_Brenau_0_416_0_2_2

New Line.l(r:p1ulv60077-udm1873) Units=km Length=0.0175277 bus1=udm1873.1.2 bus2=p1ulv60077.1.2 switch=n enabled=y phases=2 Linecode=1P_UG_AL_1/0_Brenau_0_416_0_2_2

New Line.l(r:udm1869-udm1873) Units=km Length=0.0164699 bus1=udm1869.1.2 bus2=udm1873.1.2 switch=n enabled=y phases=2 Linecode=1P_UG_AL_1/0_Brenau_0_416_0_2_2

New Line.l(r:udm1869-udt473lv) Units=km Length=0.019502300000000004 bus1=udt473lv.1.2 bus2=udm1869.1.2 switch=n enabled=y phases=2 Linecode=1P_UG_AL_2/0_Converse_0_416_0_2_2

New Line.l(r:p1ulv904-udm1874) Units=km Length=0.018214100000000004 bus1=udm1874.1.2 bus2=p1ulv904.1.2 switch=n enabled=y phases=2 Linecode=1P_UG_AL_1/0_Brenau_0_416_0_2_2

New Line.l(r:p1ulv51033-udm1876) Units=km Length=0.0176115 bus1=udm1876.1.2 bus2=p1ulv51033.1.2 switch=n enabled=y phases=2 Linecode=1P_UG_AL_1/0_Brenau_0_416_0_2_2

New Line.l(r:p1ulv53477-udm1876) Units=km Length=0.0149671 bus1=udm1876.1.2 bus2=p1ulv53477.1.2 switch=n enabled=y phases=2 Linecode=1P_UG_AL_1/0_Brenau_0_416_0_2_2

New Line.l(r:udm1874-udm1876) Units=km Length=0.08048710000000002 bus1=udm1874.1.2 bus2=udm1876.1.2 switch=n enabled=y phases=2 Linecode=1P_UG_AL_1/0_Brenau_0_416_0_2_2

New Line.l(r:udm1874-udt474lv) Units=km Length=0.00865865 bus1=udt474lv.1.2 bus2=udm1874.1.2 switch=n enabled=y phases=2 Linecode=1P_UG_AL_2/0_Converse_0_416_0_2_2

New Line.l(r:p1ulv58265-udm1879) Units=km Length=0.0164216 bus1=udm1879.1.2 bus2=p1ulv58265.1.2 switch=n enabled=y phases=2 Linecode=1P_UG_AL_1/0_Brenau_0_416_0_2_2

New Line.l(r:p1ulv60188-udm1879) Units=km Length=0.0180106 bus1=udm1879.1.2 bus2=p1ulv60188.1.2 switch=n enabled=y phases=2 Linecode=1P_UG_AL_1/0_Brenau_0_416_0_2_2

New Line.l(r:p1ulv50256-udm1875) Units=km Length=0.0169904 bus1=udm1875.1.2 bus2=p1ulv50256.1.2 switch=n enabled=y phases=2 Linecode=1P_UG_AL_1/0_Brenau_0_416_0_2_2

New Line.l(r:p1ulv56636-udm1878) Units=km Length=0.0162443 bus1=udm1878.1.2 bus2=p1ulv56636.1.2 switch=n enabled=y phases=2 Linecode=1P_UG_AL_1/0_Brenau_0_416_0_2_2

New Line.l(r:udm1875-udm1878) Units=km Length=0.00876119 bus1=udm1875.1.2 bus2=udm1878.1.2 switch=n enabled=y phases=2 Linecode=1P_UG_AL_1/0_Brenau_0_416_0_2_2

New Line.l(r:udm1875-udm1879) Units=km Length=0.0173141 bus1=udm1879.1.2 bus2=udm1875.1.2 switch=n enabled=y phases=2 Linecode=1P_UG_AL_1/0_Brenau_0_416_0_2_2

New Line.l(r:udm1879-udt474lv) Units=km Length=0.00865865 bus1=udt474lv.1.2 bus2=udm1879.1.2 switch=n enabled=y phases=2 Linecode=1P_UG_AL_4/0_Sweetbriar_0_416_0_2_2

New Line.l(r:p1ulv49571-udt475lv) Units=km Length=0.0323011 bus1=udt475lv.1.2 bus2=p1ulv49571.1.2 switch=n enabled=y phases=2 Linecode=1P_OH_AL_4/0_Zuzara_0_416_0_2_2

New Line.l(r:p1ulv905-udm1881) Units=km Length=0.0304711 bus1=udm1881.1.2 bus2=p1ulv905.1.2 switch=n enabled=y phases=2 Linecode=1P_OH_AL_4/0_Zuzara_0_416_0_2_2

New Line.l(r:p1ulv58443-udm1884) Units=km Length=0.0332138 bus1=udm1884.1.2 bus2=p1ulv58443.1.2 switch=n enabled=y phases=2 Linecode=1P_OH_AL_4/0_Zuzara_0_416_0_2_2

New Line.l(r:udm1881-udm1884) Units=km Length=0.0363754 bus1=udm1881.1.2 bus2=udm1884.1.2 switch=n enabled=y phases=2 Linecode=1P_OH_AL_4/0_Zuzara_0_416_0_2_2

New Line.l(r:udm1881-udt475lv) Units=km Length=0.018188 bus1=udt475lv.1.2 bus2=udm1881.1.2 switch=n enabled=y phases=2 Linecode=1P_OH_AL_2/0_Rucina_0_416_0_2_2

New Line.l(r:p1ulv2708-udm1882) Units=km Length=0.0241254 bus1=udm1882.1.2 bus2=p1ulv2708.1.2 switch=n enabled=y phases=2 Linecode=1P_OH_AL_2/0_Rucina_0_416_0_2_2

New Line.l(r:udm1882-udt475lv) Units=km Length=0.0363754 bus1=udt475lv.1.2 bus2=udm1882.1.2 switch=n enabled=y phases=2 Linecode=1P_OH_AL_4/0_Zuzara_0_416_0_2_2

New Line.l(r:p1ulv39659-udt476lv) Units=km Length=0.015475500000000001 bus1=udt476lv.1.2 bus2=p1ulv39659.1.2 switch=n enabled=y phases=2 Linecode=1P_UG_AL_1/0_Brenau_0_416_0_2_2

New Line.l(r:p1ulv61079-udt476lv) Units=km Length=0.020182400000000003 bus1=udt476lv.1.2 bus2=p1ulv61079.1.2 switch=n enabled=y phases=2 Linecode=1P_UG_AL_1/0_Brenau_0_416_0_2_2

New Line.l(r:p1ulv906-udm1885) Units=km Length=0.0167408 bus1=udm1885.1.2 bus2=p1ulv906.1.2 switch=n enabled=y phases=2 Linecode=1P_UG_AL_1/0_Brenau_0_416_0_2_2

New Line.l(r:p1ulv46285-udm1888) Units=km Length=0.0191655 bus1=udm1888.1.2 bus2=p1ulv46285.1.2 switch=n enabled=y phases=2 Linecode=1P_UG_AL_1/0_Brenau_0_416_0_2_2

New Line.l(r:udm1885-udm1888) Units=km Length=0.0185113 bus1=udm1885.1.2 bus2=udm1888.1.2 switch=n enabled=y phases=2 Linecode=1P_UG_AL_1/0_Brenau_0_416_0_2_2

New Line.l(r:udm1885-udt476lv) Units=km Length=0.0185014 bus1=udt476lv.1.2 bus2=udm1885.1.2 switch=n enabled=y phases=2 Linecode=1P_UG_AL_1/0_Brenau_0_416_0_2_2

New Line.l(r:p1ulv43046-udm1887) Units=km Length=0.0183885 bus1=udm1887.1.2 bus2=p1ulv43046.1.2 switch=n enabled=y phases=2 Linecode=1P_UG_AL_1/0_Brenau_0_416_0_2_2

New Line.l(r:p1ulv47898-udm1887) Units=km Length=0.0155444 bus1=udm1887.1.2 bus2=p1ulv47898.1.2 switch=n enabled=y phases=2 Linecode=1P_UG_AL_1/0_Brenau_0_416_0_2_2

New Line.l(r:p1ulv57511-udm1890) Units=km Length=0.015515300000000001 bus1=udm1890.1.2 bus2=p1ulv57511.1.2 switch=n enabled=y phases=2 Linecode=1P_UG_AL_1/0_Brenau_0_416_0_2_2

New Line.l(r:udm1887-udm1890) Units=km Length=0.0185114 bus1=udm1887.1.2 bus2=udm1890.1.2 switch=n enabled=y phases=2 Linecode=1P_UG_AL_1/0_Brenau_0_416_0_2_2

New Line.l(r:udm1887-udt476lv) Units=km Length=0.00925065 bus1=udt476lv.1.2 bus2=udm1887.1.2 switch=n enabled=y phases=2 Linecode=1P_UG_AL_2/0_Converse_0_416_0_2_2

New Line.l(r:p1ulv907-udm1892) Units=km Length=0.016541 bus1=udm1892.1.2 bus2=p1ulv907.1.2 switch=n enabled=y phases=2 Linecode=1P_UG_AL_1/0_Brenau_0_416_0_2_2

New Line.l(r:p1ulv60959-udm1892) Units=km Length=0.0164102 bus1=udm1892.1.2 bus2=p1ulv60959.1.2 switch=n enabled=y phases=2 Linecode=1P_UG_AL_1/0_Brenau_0_416_0_2_2

New Line.l(r:udm1892-udt477lv) Units=km Length=0.008408000000000002 bus1=udt477lv.1.2 bus2=udm1892.1.2 switch=n enabled=y phases=2 Linecode=1P_UG_AL_2/0_Converse_0_416_0_2_2

New Line.l(r:p1ulv57093-udm1893) Units=km Length=0.0168036 bus1=udm1893.1.2 bus2=p1ulv57093.1.2 switch=n enabled=y phases=2 Linecode=1P_UG_AL_1/0_Brenau_0_416_0_2_2

New Line.l(r:udm1893-udt477lv) Units=km Length=0.015042 bus1=udt477lv.1.2 bus2=udm1893.1.2 switch=n enabled=y phases=2 Linecode=1P_UG_AL_1/0_Brenau_0_416_0_2_2

New Line.l(r:p1ulv908-udt478lv) Units=km Length=0.0334543 bus1=udt478lv.1.2 bus2=p1ulv908.1.2 switch=n enabled=y phases=2 Linecode=1P_UG_AL_1/0_Brenau_0_416_0_2_2

New Line.l(r:p1ulv59956-udt478lv) Units=km Length=0.0154752 bus1=udt478lv.1.2 bus2=p1ulv59956.1.2 switch=n enabled=y phases=2 Linecode=1P_UG_AL_1/0_Brenau_0_416_0_2_2

New Line.l(r:p1ulv42129-udm1896) Units=km Length=0.017502 bus1=udm1896.1.2 bus2=p1ulv42129.1.2 switch=n enabled=y phases=2 Linecode=1P_UG_AL_1/0_Brenau_0_416_0_2_2

New Line.l(r:udm1896-udt478lv) Units=km Length=0.00799618 bus1=udt478lv.1.2 bus2=udm1896.1.2 switch=n enabled=y phases=2 Linecode=1P_UG_AL_1/0_Brenau_0_416_0_2_2

New Line.l(r:p1ulv49875-udm1897) Units=km Length=0.0162883 bus1=udm1897.1.2 bus2=p1ulv49875.1.2 switch=n enabled=y phases=2 Linecode=1P_UG_AL_1/0_Brenau_0_416_0_2_2

New Line.l(r:udm1897-udt478lv) Units=km Length=0.01597 bus1=udt478lv.1.2 bus2=udm1897.1.2 switch=n enabled=y phases=2 Linecode=1P_UG_AL_1/0_Brenau_0_416_0_2_2

New Line.l(r:p1ulv909-udm1899) Units=km Length=0.0166448 bus1=udm1899.1.2 bus2=p1ulv909.1.2 switch=n enabled=y phases=2 Linecode=1P_UG_AL_1/0_Brenau_0_416_0_2_2

New Line.l(r:udm1899-udt479lv) Units=km Length=0.00942359 bus1=udt479lv.1.2 bus2=udm1899.1.2 switch=n enabled=y phases=2 Linecode=1P_UG_AL_1/0_Brenau_0_416_0_2_2

New Line.l(r:p1ulv55014-udm1900) Units=km Length=0.018521900000000004 bus1=udm1900.1.2 bus2=p1ulv55014.1.2 switch=n enabled=y phases=2 Linecode=1P_UG_AL_1/0_Brenau_0_416_0_2_2

New Line.l(r:p1ulv57738-udm1900) Units=km Length=0.0161537 bus1=udm1900.1.2 bus2=p1ulv57738.1.2 switch=n enabled=y phases=2 Linecode=1P_UG_AL_1/0_Brenau_0_416_0_2_2

New Line.l(r:udm1900-udt479lv) Units=km Length=0.00942359 bus1=udt479lv.1.2 bus2=udm1900.1.2 switch=n enabled=y phases=2 Linecode=1P_UG_AL_1/0_Brenau_0_416_0_2_2

New Line.l(r:p1ulv911-udt481lv) Units=km Length=0.143238 bus1=udt481lv.1.2 bus2=p1ulv911.1.2 switch=n enabled=y phases=2 Linecode=1P_OH_AL_4/0_Zuzara_0_416_0_2_2

New Line.l(r:p1ulv48405-udm1904) Units=km Length=0.0153324 bus1=udm1904.1.2 bus2=p1ulv48405.1.2 switch=n enabled=y phases=2 Linecode=1P_OH_AL_2/0_Rucina_0_416_0_2_2

New Line.l(r:p1ulv53582-udm1905) Units=km Length=0.0411649 bus1=udm1905.1.2 bus2=p1ulv53582.1.2 switch=n enabled=y phases=2 Linecode=1P_OH_AL_4/0_Zuzara_0_416_0_2_2

New Line.l(r:udm1904-udm1905) Units=km Length=0.0191795 bus1=udm1904.1.2 bus2=udm1905.1.2 switch=n enabled=y phases=2 Linecode=1P_OH_AL_2/0_Rucina_0_416_0_2_2

New Line.l(r:udm1904-udt481lv) Units=km Length=0.0191895 bus1=udt481lv.1.2 bus2=udm1904.1.2 switch=n enabled=y phases=2 Linecode=1P_OH_AL_2/0_Rucina_0_416_0_2_2

New Line.l(r:p1ulv912-udm1906) Units=km Length=0.0157104 bus1=udm1906.1.2 bus2=p1ulv912.1.2 switch=n enabled=y phases=2 Linecode=1P_OH_AL_2/0_Rucina_0_416_0_2_2

New Line.l(r:p1ulv56370-udm1906) Units=km Length=0.0182019 bus1=udm1906.1.2 bus2=p1ulv56370.1.2 switch=n enabled=y phases=2 Linecode=1P_OH_AL_2/0_Rucina_0_416_0_2_2

New Line.l(r:p1ulv51461-udm1908) Units=km Length=0.010430300000000002 bus1=udm1908.1.2 bus2=p1ulv51461.1.2 switch=n enabled=y phases=2 Linecode=1P_OH_AL_2/0_Rucina_0_416_0_2_2

New Line.l(r:udm1906-udm1908) Units=km Length=0.0215646 bus1=udm1906.1.2 bus2=udm1908.1.2 switch=n enabled=y phases=2 Linecode=1P_OH_AL_2/0_Rucina_0_416_0_2_2

New Line.l(r:udm1906-udt482lv) Units=km Length=0.019129100000000003 bus1=udt482lv.1.2 bus2=udm1906.1.2 switch=n enabled=y phases=2 Linecode=1P_OH_AL_2/0_Rucina_0_416_0_2_2

New Line.l(r:p1ulv39843-udm1907) Units=km Length=0.0110187 bus1=udm1907.1.2 bus2=p1ulv39843.1.2 switch=n enabled=y phases=2 Linecode=1P_OH_AL_2/0_Rucina_0_416_0_2_2

New Line.l(r:p1ulv51792-udm1907) Units=km Length=0.0129808 bus1=udm1907.1.2 bus2=p1ulv51792.1.2 switch=n enabled=y phases=2 Linecode=1P_OH_AL_2/0_Rucina_0_416_0_2_2

New Line.l(r:udm1907-udt482lv) Units=km Length=0.0223167 bus1=udt482lv.1.2 bus2=udm1907.1.2 switch=n enabled=y phases=2 Linecode=1P_OH_AL_2/0_Rucina_0_416_0_2_2

New Line.l(r:p1ulv914-udt484lv) Units=km Length=0.016107500000000004 bus1=udt484lv.1.2 bus2=p1ulv914.1.2 switch=n enabled=y phases=2 Linecode=1P_UG_AL_1/0_Brenau_0_416_0_2_2

New Line.l(r:p1ulv40220-udm1914) Units=km Length=0.0179864 bus1=udm1914.1.2 bus2=p1ulv40220.1.2 switch=n enabled=y phases=2 Linecode=1P_UG_AL_1/0_Brenau_0_416_0_2_2

New Line.l(r:p1ulv52726-udm1914) Units=km Length=0.018831700000000003 bus1=udm1914.1.2 bus2=p1ulv52726.1.2 switch=n enabled=y phases=2 Linecode=1P_UG_AL_1/0_Brenau_0_416_0_2_2

New Line.l(r:p1ulv52159-udm1916) Units=km Length=0.0201121 bus1=udm1916.1.2 bus2=p1ulv52159.1.2 switch=n enabled=y phases=2 Linecode=1P_UG_AL_1/0_Brenau_0_416_0_2_2

New Line.l(r:udm1914-udm1916) Units=km Length=0.0523565 bus1=udm1914.1.2 bus2=udm1916.1.2 switch=n enabled=y phases=2 Linecode=1P_UG_AL_1/0_Brenau_0_416_0_2_2

New Line.l(r:udm1914-udt484lv) Units=km Length=0.00930415 bus1=udt484lv.1.2 bus2=udm1914.1.2 switch=n enabled=y phases=2 Linecode=1P_UG_AL_2/0_Converse_0_416_0_2_2

New Line.l(r:p1ulv50010-udm1915) Units=km Length=0.0179009 bus1=udm1915.1.2 bus2=p1ulv50010.1.2 switch=n enabled=y phases=2 Linecode=1P_UG_AL_1/0_Brenau_0_416_0_2_2

New Line.l(r:p1ulv57383-udm1915) Units=km Length=0.0180182 bus1=udm1915.1.2 bus2=p1ulv57383.1.2 switch=n enabled=y phases=2 Linecode=1P_UG_AL_1/0_Brenau_0_416_0_2_2

New Line.l(r:p1ulv59590-udm1919) Units=km Length=0.0164104 bus1=udm1919.1.2 bus2=p1ulv59590.1.2 switch=n enabled=y phases=2 Linecode=1P_UG_AL_1/0_Brenau_0_416_0_2_2

New Line.l(r:udm1915-udm1919) Units=km Length=0.00969132 bus1=udm1915.1.2 bus2=udm1919.1.2 switch=n enabled=y phases=2 Linecode=1P_UG_AL_1/0_Brenau_0_416_0_2_2

New Line.l(r:udm1915-udt484lv) Units=km Length=0.0189855 bus1=udt484lv.1.2 bus2=udm1915.1.2 switch=n enabled=y phases=2 Linecode=1P_UG_AL_2/0_Converse_0_416_0_2_2

New Line.l(r:p1ulv46355-udt485lv) Units=km Length=0.0269964 bus1=udt485lv.1.2 bus2=p1ulv46355.1.2 switch=n enabled=y phases=2 Linecode=1P_OH_AL_2/0_Rucina_0_416_0_2_2

New Line.l(r:p1ulv49943-udt485lv) Units=km Length=0.027978 bus1=udt485lv.1.2 bus2=p1ulv49943.1.2 switch=n enabled=y phases=2 Linecode=1P_OH_AL_4/0_Zuzara_0_416_0_2_2

New Line.l(r:p1ulv58867-udt485lv) Units=km Length=0.029228 bus1=udt485lv.1.2 bus2=p1ulv58867.1.2 switch=n enabled=y phases=2 Linecode=1P_OH_AL_4/0_Zuzara_0_416_0_2_2

New Line.l(r:p1ulv915-udm1920) Units=km Length=0.0250514 bus1=udm1920.1.2 bus2=p1ulv915.1.2 switch=n enabled=y phases=2 Linecode=1P_UG_AL_1/0_Brenau_0_416_0_2_2

New Line.l(r:p1ulv55333-udm1920) Units=km Length=0.0251567 bus1=udm1920.1.2 bus2=p1ulv55333.1.2 switch=n enabled=y phases=2 Linecode=1P_UG_AL_1/0_Brenau_0_416_0_2_2

New Line.l(r:p1ulv43549-udm1921) Units=km Length=0.016399300000000002 bus1=udm1921.1.2 bus2=p1ulv43549.1.2 switch=n enabled=y phases=2 Linecode=1P_UG_AL_1/0_Brenau_0_416_0_2_2

New Line.l(r:udm1920-udm1921) Units=km Length=0.0194789 bus1=udm1920.1.2 bus2=udm1921.1.2 switch=n enabled=y phases=2 Linecode=1P_UG_AL_1/0_Brenau_0_416_0_2_2

New Line.l(r:udm1920-udt485lv) Units=km Length=0.00974462 bus1=udt485lv.1.2 bus2=udm1920.1.2 switch=n enabled=y phases=2 Linecode=1P_OH_AL_2/0_Rucina_0_416_0_2_2

New Line.l(r:p1ulv54250-udm1927) Units=km Length=0.0175011 bus1=udm1927.1.2 bus2=p1ulv54250.1.2 switch=n enabled=y phases=2 Linecode=1P_OH_AL_2/0_Rucina_0_416_0_2_2

New Line.l(r:p1ulv916-udm1926) Units=km Length=0.0162492 bus1=udm1926.1.2 bus2=p1ulv916.1.2 switch=n enabled=y phases=2 Linecode=1P_OH_AL_2/0_Rucina_0_416_0_2_2

New Line.l(r:udm1926-udm1927) Units=km Length=0.0229345 bus1=udm1927.1.2 bus2=udm1926.1.2 switch=n enabled=y phases=2 Linecode=1P_OH_AL_2/0_Rucina_0_416_0_2_2

New Line.l(r:udm1927-udt486lv) Units=km Length=0.0666408 bus1=udt486lv.1.2 bus2=udm1927.1.2 switch=n enabled=y phases=2 Linecode=1P_OH_AL_4/0_Zuzara_0_416_0_2_2

New Line.l(r:p1ulv55018-udm1928) Units=km Length=0.0335521 bus1=udm1928.1.2 bus2=p1ulv55018.1.2 switch=n enabled=y phases=2 Linecode=1P_OH_AL_4/0_Zuzara_0_416_0_2_2

New Line.l(r:p1ulv60080-udm1928) Units=km Length=0.0315516 bus1=udm1928.1.2 bus2=p1ulv60080.1.2 switch=n enabled=y phases=2 Linecode=1P_OH_AL_4/0_Zuzara_0_416_0_2_2

New Line.l(r:p1ulv60734-udm1928) Units=km Length=0.03004 bus1=udm1928.1.2 bus2=p1ulv60734.1.2 switch=n enabled=y phases=2 Linecode=1P_OH_AL_4/0_Zuzara_0_416_0_2_2

New Line.l(r:udm1928-udt486lv) Units=km Length=0.0142036 bus1=udt486lv.1.2 bus2=udm1928.1.2 switch=n enabled=y phases=2 Linecode=1P_OH_AL_2/0_Rucina_0_416_0_2_2

New Line.l(r:p1ulv47035-udm1933) Units=km Length=0.013840700000000001 bus1=udm1933.1.2 bus2=p1ulv47035.1.2 switch=n enabled=y phases=2 Linecode=1P_UG_AL_1/0_Brenau_0_416_0_2_2

New Line.l(r:p1ulv917-udm1931) Units=km Length=0.0135957 bus1=udm1931.1.2 bus2=p1ulv917.1.2 switch=n enabled=y phases=2 Linecode=1P_UG_AL_1/0_Brenau_0_416_0_2_2

New Line.l(r:udm1931-udm1933) Units=km Length=0.0359368 bus1=udm1933.1.2 bus2=udm1931.1.2 switch=n enabled=y phases=2 Linecode=1P_UG_AL_1/0_Brenau_0_416_0_2_2

New Line.l(r:p1ulv53174-udm1934) Units=km Length=0.0132507 bus1=udm1934.1.2 bus2=p1ulv53174.1.2 switch=n enabled=y phases=2 Linecode=1P_UG_AL_1/0_Brenau_0_416_0_2_2

New Line.l(r:udm1933-udm1934) Units=km Length=0.00826057 bus1=udm1933.1.2 bus2=udm1934.1.2 switch=n enabled=y phases=2 Linecode=1P_UG_AL_1/0_Brenau_0_416_0_2_2

New Line.l(r:p1ulv59320-udm1937) Units=km Length=0.014019700000000001 bus1=udm1937.1.2 bus2=p1ulv59320.1.2 switch=n enabled=y phases=2 Linecode=1P_UG_AL_1/0_Brenau_0_416_0_2_2

New Line.l(r:udm1933-udm1937) Units=km Length=0.0360866 bus1=udm1933.1.2 bus2=udm1937.1.2 switch=n enabled=y phases=2 Linecode=1P_UG_AL_1/0_Brenau_0_416_0_2_2

New Line.l(r:udm1933-udt487lv) Units=km Length=0.0353964 bus1=udt487lv.1.2 bus2=udm1933.1.2 switch=n enabled=y phases=2 Linecode=1P_UG_AL_4/0_Sweetbriar_0_416_0_2_2

New Line.l(r:p1ulv55769-udm1935) Units=km Length=0.0177807 bus1=udm1935.1.2 bus2=p1ulv55769.1.2 switch=n enabled=y phases=2 Linecode=1P_UG_AL_1/0_Brenau_0_416_0_2_2

New Line.l(r:p1ulv40441-udm1932) Units=km Length=0.0201732 bus1=udm1932.1.2 bus2=p1ulv40441.1.2 switch=n enabled=y phases=2 Linecode=1P_UG_AL_1/0_Brenau_0_416_0_2_2

New Line.l(r:p1ulv59139-udm1936) Units=km Length=0.0159508 bus1=udm1936.1.2 bus2=p1ulv59139.1.2 switch=n enabled=y phases=2 Linecode=1P_UG_AL_1/0_Brenau_0_416_0_2_2

New Line.l(r:udm1932-udm1936) Units=km Length=0.00860026 bus1=udm1932.1.2 bus2=udm1936.1.2 switch=n enabled=y phases=2 Linecode=1P_UG_AL_1/0_Brenau_0_416_0_2_2

New Line.l(r:udm1932-udm1935) Units=km Length=0.0257798 bus1=udm1935.1.2 bus2=udm1932.1.2 switch=n enabled=y phases=2 Linecode=1P_UG_AL_1/0_Brenau_0_416_0_2_2

New Line.l(r:udm1935-udt487lv) Units=km Length=0.00942752 bus1=udt487lv.1.2 bus2=udm1935.1.2 switch=n enabled=y phases=2 Linecode=1P_UG_AL_2/0_Converse_0_416_0_2_2

New Line.l(r:p1ulv918-udm1938) Units=km Length=0.023472000000000003 bus1=udm1938.1.2 bus2=p1ulv918.1.2 switch=n enabled=y phases=2 Linecode=1P_UG_AL_1/0_Brenau_0_416_0_2_2

New Line.l(r:udm1938-udt488lv) Units=km Length=0.00999025 bus1=udt488lv.1.2 bus2=udm1938.1.2 switch=n enabled=y phases=2 Linecode=1P_UG_AL_1/0_Brenau_0_416_0_2_2

New Line.l(r:p1ulv57400-udm1939) Units=km Length=0.022777 bus1=udm1939.1.2 bus2=p1ulv57400.1.2 switch=n enabled=y phases=2 Linecode=1P_UG_AL_1/0_Brenau_0_416_0_2_2

New Line.l(r:udm1939-udt488lv) Units=km Length=0.0199704 bus1=udt488lv.1.2 bus2=udm1939.1.2 switch=n enabled=y phases=2 Linecode=1P_UG_AL_1/0_Brenau_0_416_0_2_2

New Line.l(r:p1ulv919-udt489lv) Units=km Length=0.014570000000000001 bus1=udt489lv.1.2 bus2=p1ulv919.1.2 switch=n enabled=y phases=2 Linecode=1P_OH_AL_2/0_Rucina_0_416_0_2_2

New Line.l(r:p1ulv60444-udt489lv) Units=km Length=0.0187323 bus1=udt489lv.1.2 bus2=p1ulv60444.1.2 switch=n enabled=y phases=2 Linecode=1P_OH_AL_2/0_Rucina_0_416_0_2_2

New Line.l(r:p1ulv41890-udm1941) Units=km Length=0.0126436 bus1=udm1941.1.2 bus2=p1ulv41890.1.2 switch=n enabled=y phases=2 Linecode=1P_OH_AL_2/0_Rucina_0_416_0_2_2

New Line.l(r:udm1941-udt489lv) Units=km Length=0.0569024 bus1=udt489lv.1.2 bus2=udm1941.1.2 switch=n enabled=y phases=2 Linecode=1P_OH_AL_4/0_Zuzara_0_416_0_2_2

New Line.l(r:p1ulv58446-udm1942) Units=km Length=0.0135616 bus1=udm1942.1.2 bus2=p1ulv58446.1.2 switch=n enabled=y phases=2 Linecode=1P_OH_AL_2/0_Rucina_0_416_0_2_2

New Line.l(r:p1ulv61028-udm1944) Units=km Length=0.0199979 bus1=udm1944.1.2 bus2=p1ulv61028.1.2 switch=n enabled=y phases=2 Linecode=1P_OH_AL_2/0_Rucina_0_416_0_2_2

New Line.l(r:udm1942-udm1944) Units=km Length=0.0141977 bus1=udm1942.1.2 bus2=udm1944.1.2 switch=n enabled=y phases=2 Linecode=1P_OH_AL_2/0_Rucina_0_416_0_2_2

New Line.l(r:udm1942-udt489lv) Units=km Length=0.0152589 bus1=udt489lv.1.2 bus2=udm1942.1.2 switch=n enabled=y phases=2 Linecode=1P_OH_AL_2/0_Rucina_0_416_0_2_2

New Line.l(r:p1ulv920-udt490lv) Units=km Length=0.0198431 bus1=udt490lv.1.2 bus2=p1ulv920.1.2 switch=n enabled=y phases=2 Linecode=1P_OH_AL_2/0_Rucina_0_416_0_2_2

New Line.l(r:p1ulv54359-udt490lv) Units=km Length=0.0144673 bus1=udt490lv.1.2 bus2=p1ulv54359.1.2 switch=n enabled=y phases=2 Linecode=1P_OH_AL_2/0_Rucina_0_416_0_2_2

New Line.l(r:p1ulv49641-udm1946) Units=km Length=0.0181438 bus1=udm1946.1.2 bus2=p1ulv49641.1.2 switch=n enabled=y phases=2 Linecode=1P_OH_AL_2/0_Rucina_0_416_0_2_2

New Line.l(r:udm1946-udt490lv) Units=km Length=0.0170447 bus1=udt490lv.1.2 bus2=udm1946.1.2 switch=n enabled=y phases=2 Linecode=1P_OH_AL_2/0_Rucina_0_416_0_2_2

New Line.l(r:p1ulv921-udt491lv) Units=km Length=0.07793740000000002 bus1=udt491lv.1.2 bus2=p1ulv921.1.2 switch=n enabled=y phases=2 Linecode=1P_UG_AL_1/0_Brenau_0_416_0_2_2

New Line.l(r:p1ulv923-udm1949) Units=km Length=0.0258871 bus1=udm1949.1.2 bus2=p1ulv923.1.2 switch=n enabled=y phases=2 Linecode=1P_OH_AL_2/0_Rucina_0_416_0_2_2

New Line.l(r:udm1949-udt491lv) Units=km Length=0.0321399 bus1=udt491lv.1.2 bus2=udm1949.1.2 switch=n enabled=y phases=2 Linecode=1P_OH_AL_4/0_Zuzara_0_416_0_2_2

New Line.l(r:p1ulv922-udm1950) Units=km Length=0.016506300000000005 bus1=udm1950.1.2 bus2=p1ulv922.1.2 switch=n enabled=y phases=2 Linecode=1P_OH_AL_2/0_Rucina_0_416_0_2_2

New Line.l(r:udm1950-udt492lv) Units=km Length=0.0382664 bus1=udt492lv.1.2 bus2=udm1950.1.2 switch=n enabled=y phases=2 Linecode=1P_OH_AL_4/0_Zuzara_0_416_0_2_2

New Line.l(r:p1ulv44806-udm1951) Units=km Length=0.0254323 bus1=udm1951.1.2 bus2=p1ulv44806.1.2 switch=n enabled=y phases=2 Linecode=1P_OH_AL_2/0_Rucina_0_416_0_2_2

New Line.l(r:p1ulv56819-udm1951) Units=km Length=0.0280609 bus1=udm1951.1.2 bus2=p1ulv56819.1.2 switch=n enabled=y phases=2 Linecode=1P_OH_AL_4/0_Zuzara_0_416_0_2_2

New Line.l(r:udm1951-udt492lv) Units=km Length=0.0185382 bus1=udt492lv.1.2 bus2=udm1951.1.2 switch=n enabled=y phases=2 Linecode=1P_OH_AL_2/0_Rucina_0_416_0_2_2

New Line.l(r:p1ulv924-udm1953) Units=km Length=0.0105626 bus1=udm1953.1.2 bus2=p1ulv924.1.2 switch=n enabled=y phases=2 Linecode=1P_UG_AL_1/0_Brenau_0_416_0_2_2

New Line.l(r:p1ulv51721-udm1953) Units=km Length=0.0140313 bus1=udm1953.1.2 bus2=p1ulv51721.1.2 switch=n enabled=y phases=2 Linecode=1P_UG_AL_1/0_Brenau_0_416_0_2_2

New Line.l(r:p1ulv941-udm1954) Units=km Length=0.00668216 bus1=udm1954.1.2 bus2=p1ulv941.1.2 switch=n enabled=y phases=2 Linecode=1P_UG_AL_1/0_Brenau_0_416_0_2_2

New Line.l(r:p1ulv58960-udm1958) Units=km Length=0.013717100000000001 bus1=udm1958.1.2 bus2=p1ulv58960.1.2 switch=n enabled=y phases=2 Linecode=1P_UG_AL_1/0_Brenau_0_416_0_2_2

New Line.l(r:udm1954-udm1958) Units=km Length=0.00900023 bus1=udm1954.1.2 bus2=udm1958.1.2 switch=n enabled=y phases=2 Linecode=1P_UG_AL_1/0_Brenau_0_416_0_2_2

New Line.l(r:udm1953-udm1954) Units=km Length=0.0189623 bus1=udm1953.1.2 bus2=udm1954.1.2 switch=n enabled=y phases=2 Linecode=1P_UG_AL_1/0_Brenau_0_416_0_2_2

New Line.l(r:udm1953-udt493lv) Units=km Length=0.009955810000000002 bus1=udt493lv.1.2 bus2=udm1953.1.2 switch=n enabled=y phases=2 Linecode=1P_UG_AL_4/0_Sweetbriar_0_416_0_2_2

New Line.l(r:p1ulv48337-udm1955) Units=km Length=0.0105982 bus1=udm1955.1.2 bus2=p1ulv48337.1.2 switch=n enabled=y phases=2 Linecode=1P_UG_AL_1/0_Brenau_0_416_0_2_2

New Line.l(r:p1ulv48661-udm1956) Units=km Length=0.0102586 bus1=udm1956.1.2 bus2=p1ulv48661.1.2 switch=n enabled=y phases=2 Linecode=1P_UG_AL_1/0_Brenau_0_416_0_2_2

New Line.l(r:udm1955-udm1956) Units=km Length=0.0285804 bus1=udm1955.1.2 bus2=udm1956.1.2 switch=n enabled=y phases=2 Linecode=1P_UG_AL_1/0_Brenau_0_416_0_2_2

New Line.l(r:udm1955-udt493lv) Units=km Length=0.00953706 bus1=udt493lv.1.2 bus2=udm1955.1.2 switch=n enabled=y phases=2 Linecode=1P_UG_AL_1/0_Brenau_0_416_0_2_2

New Line.l(r:p1ulv41325-udm1960) Units=km Length=0.022264300000000004 bus1=udm1960.1.2 bus2=p1ulv41325.1.2 switch=n enabled=y phases=2 Linecode=1P_UG_AL_1/0_Brenau_0_416_0_2_2

New Line.l(r:p1ulv46908-udm1960) Units=km Length=0.0224484 bus1=udm1960.1.2 bus2=p1ulv46908.1.2 switch=n enabled=y phases=2 Linecode=1P_UG_AL_1/0_Brenau_0_416_0_2_2

New Line.l(r:p1ulv48138-udm1960) Units=km Length=0.019247 bus1=udm1960.1.2 bus2=p1ulv48138.1.2 switch=n enabled=y phases=2 Linecode=1P_UG_AL_1/0_Brenau_0_416_0_2_2

New Line.l(r:p1ulv48466-udm1960) Units=km Length=0.0240266 bus1=udm1960.1.2 bus2=p1ulv48466.1.2 switch=n enabled=y phases=2 Linecode=1P_UG_AL_1/0_Brenau_0_416_0_2_2

New Line.l(r:udm1960-udt494lv) Units=km Length=0.016841 bus1=udt494lv.1.2 bus2=udm1960.1.2 switch=n enabled=y phases=2 Linecode=1P_UG_AL_4/0_Sweetbriar_0_416_0_2_2

New Line.l(r:p1ulv59726-udm1965) Units=km Length=0.015090500000000001 bus1=udm1965.1.2 bus2=p1ulv59726.1.2 switch=n enabled=y phases=2 Linecode=1P_UG_AL_1/0_Brenau_0_416_0_2_2

New Line.l(r:p1ulv925-udm1959) Units=km Length=0.00939328 bus1=udm1959.1.2 bus2=p1ulv925.1.2 switch=n enabled=y phases=2 Linecode=1P_UG_AL_1/0_Brenau_0_416_0_2_2

New Line.l(r:p1ulv56368-udm1964) Units=km Length=0.0145299 bus1=udm1964.1.2 bus2=p1ulv56368.1.2 switch=n enabled=y phases=2 Linecode=1P_UG_AL_1/0_Brenau_0_416_0_2_2

New Line.l(r:udm1959-udm1964) Units=km Length=0.00964207 bus1=udm1959.1.2 bus2=udm1964.1.2 switch=n enabled=y phases=2 Linecode=1P_UG_AL_1/0_Brenau_0_416_0_2_2

New Line.l(r:udm1959-udm1965) Units=km Length=0.00964187 bus1=udm1965.1.2 bus2=udm1959.1.2 switch=n enabled=y phases=2 Linecode=1P_UG_AL_1/0_Brenau_0_416_0_2_2

New Line.l(r:udm1965-udt494lv) Units=km Length=0.025257 bus1=udt494lv.1.2 bus2=udm1965.1.2 switch=n enabled=y phases=2 Linecode=1P_UG_AL_2/0_Converse_0_416_0_2_2
