New Line.l(r:p1ulv1406-udt714lv) Units=km Length=0.0144039 bus1=udt714lv.1.2 bus2=p1ulv1406.1.2 switch=n enabled=y phases=2 Linecode=1P_UG_AL_1/0_Brenau_0_416_0_2_2

New Line.l(r:p1ulv1405-udm2984) Units=km Length=0.014762 bus1=udm2984.1.2 bus2=p1ulv1405.1.2 switch=n enabled=y phases=2 Linecode=1P_UG_AL_1/0_Brenau_0_416_0_2_2

New Line.l(r:p1ulv1435-udm2984) Units=km Length=0.0182278 bus1=udm2984.1.2 bus2=p1ulv1435.1.2 switch=n enabled=y phases=2 Linecode=1P_UG_AL_1/0_Brenau_0_416_0_2_2

New Line.l(r:p1ulv1434-udm2988) Units=km Length=0.015507300000000002 bus1=udm2988.1.2 bus2=p1ulv1434.1.2 switch=n enabled=y phases=2 Linecode=1P_UG_AL_1/0_Brenau_0_416_0_2_2

New Line.l(r:udm2984-udm2988) Units=km Length=0.00852879 bus1=udm2984.1.2 bus2=udm2988.1.2 switch=n enabled=y phases=2 Linecode=1P_UG_AL_1/0_Brenau_0_416_0_2_2

New Line.l(r:udm2984-udt714lv) Units=km Length=0.00954703 bus1=udt714lv.1.2 bus2=udm2984.1.2 switch=n enabled=y phases=2 Linecode=1P_UG_AL_1/0_Brenau_0_416_0_2_2

New Line.l(r:p1ulv1408-udm2986) Units=km Length=0.0143139 bus1=udm2986.1.2 bus2=p1ulv1408.1.2 switch=n enabled=y phases=2 Linecode=1P_UG_AL_1/0_Brenau_0_416_0_2_2

New Line.l(r:p1ulv1409-udm2987) Units=km Length=0.0129846 bus1=udm2987.1.2 bus2=p1ulv1409.1.2 switch=n enabled=y phases=2 Linecode=1P_UG_AL_1/0_Brenau_0_416_0_2_2

New Line.l(r:udm2986-udm2987) Units=km Length=0.00954703 bus1=udm2986.1.2 bus2=udm2987.1.2 switch=n enabled=y phases=2 Linecode=1P_UG_AL_1/0_Brenau_0_416_0_2_2

New Line.l(r:udm2986-udt714lv) Units=km Length=0.00953619 bus1=udt714lv.1.2 bus2=udm2986.1.2 switch=n enabled=y phases=2 Linecode=1P_UG_AL_1/0_Brenau_0_416_0_2_2

New Line.l(r:p1ulv1413-udt715lv) Units=km Length=0.026825100000000004 bus1=udt715lv.1.2 bus2=p1ulv1413.1.2 switch=n enabled=y phases=2 Linecode=1P_UG_AL_1/0_Brenau_0_416_0_2_2

New Line.l(r:p1ulv1414-udt715lv) Units=km Length=0.0285715 bus1=udt715lv.1.2 bus2=p1ulv1414.1.2 switch=n enabled=y phases=2 Linecode=1P_UG_AL_1/0_Brenau_0_416_0_2_2

New Line.l(r:p1ulv1415-udt715lv) Units=km Length=0.0264986 bus1=udt715lv.1.2 bus2=p1ulv1415.1.2 switch=n enabled=y phases=2 Linecode=1P_UG_AL_1/0_Brenau_0_416_0_2_2

New Line.l(r:p1ulv1419-udt715lv) Units=km Length=0.0157601 bus1=udt715lv.1.2 bus2=p1ulv1419.1.2 switch=n enabled=y phases=2 Linecode=1P_UG_AL_1/0_Brenau_0_416_0_2_2

New Line.l(r:p1ulv1420-udt715lv) Units=km Length=0.017830500000000003 bus1=udt715lv.1.2 bus2=p1ulv1420.1.2 switch=n enabled=y phases=2 Linecode=1P_UG_AL_1/0_Brenau_0_416_0_2_2

New Line.l(r:p1ulv1421-udt715lv) Units=km Length=0.0222164 bus1=udt715lv.1.2 bus2=p1ulv1421.1.2 switch=n enabled=y phases=2 Linecode=1P_UG_AL_1/0_Brenau_0_416_0_2_2

New Line.l(r:p1ulv1410-udm2990) Units=km Length=0.0131481 bus1=udm2990.1.2 bus2=p1ulv1410.1.2 switch=n enabled=y phases=2 Linecode=1P_UG_AL_1/0_Brenau_0_416_0_2_2

New Line.l(r:p1ulv1411-udm2990) Units=km Length=0.0141259 bus1=udm2990.1.2 bus2=p1ulv1411.1.2 switch=n enabled=y phases=2 Linecode=1P_UG_AL_1/0_Brenau_0_416_0_2_2

New Line.l(r:p1ulv1412-udm2990) Units=km Length=0.0179781 bus1=udm2990.1.2 bus2=p1ulv1412.1.2 switch=n enabled=y phases=2 Linecode=1P_UG_AL_1/0_Brenau_0_416_0_2_2

New Line.l(r:udm2990-udt715lv) Units=km Length=0.00799591 bus1=udt715lv.1.2 bus2=udm2990.1.2 switch=n enabled=y phases=2 Linecode=1P_UG_AL_1/0_Brenau_0_416_0_2_2

New Line.l(r:p1ulv1417-udm2996) Units=km Length=0.0134516 bus1=udm2996.1.2 bus2=p1ulv1417.1.2 switch=n enabled=y phases=2 Linecode=1P_UG_AL_1/0_Brenau_0_416_0_2_2

New Line.l(r:p1ulv1418-udm2996) Units=km Length=0.01306 bus1=udm2996.1.2 bus2=p1ulv1418.1.2 switch=n enabled=y phases=2 Linecode=1P_UG_AL_1/0_Brenau_0_416_0_2_2

New Line.l(r:udm2996-udt715lv) Units=km Length=0.00851536 bus1=udt715lv.1.2 bus2=udm2996.1.2 switch=n enabled=y phases=2 Linecode=1P_UG_AL_1/0_Brenau_0_416_0_2_2

New Line.l(r:p1ulv1431-udt716lv) Units=km Length=0.0117061 bus1=udt716lv.1.2 bus2=p1ulv1431.1.2 switch=n enabled=y phases=2 Linecode=1P_UG_AL_1/0_Brenau_0_416_0_2_2

New Line.l(r:p1ulv1428-udm3003) Units=km Length=0.0157421 bus1=udm3003.1.2 bus2=p1ulv1428.1.2 switch=n enabled=y phases=2 Linecode=1P_UG_AL_1/0_Brenau_0_416_0_2_2

New Line.l(r:p1ulv1430-udm3003) Units=km Length=0.0135999 bus1=udm3003.1.2 bus2=p1ulv1430.1.2 switch=n enabled=y phases=2 Linecode=1P_UG_AL_1/0_Brenau_0_416_0_2_2

New Line.l(r:p1ulv1422-udm3001) Units=km Length=0.0153001 bus1=udm3001.1.2 bus2=p1ulv1422.1.2 switch=n enabled=y phases=2 Linecode=1P_UG_AL_1/0_Brenau_0_416_0_2_2

New Line.l(r:p1ulv1423-udm3001) Units=km Length=0.0139626 bus1=udm3001.1.2 bus2=p1ulv1423.1.2 switch=n enabled=y phases=2 Linecode=1P_UG_AL_1/0_Brenau_0_416_0_2_2

New Line.l(r:udm3001-udm3003) Units=km Length=0.00846958 bus1=udm3003.1.2 bus2=udm3001.1.2 switch=n enabled=y phases=2 Linecode=1P_UG_AL_1/0_Brenau_0_416_0_2_2

New Line.l(r:udm3003-udt716lv) Units=km Length=0.00897366 bus1=udt716lv.1.2 bus2=udm3003.1.2 switch=n enabled=y phases=2 Linecode=1P_UG_AL_4/0_Sweetbriar_0_416_0_2_2

New Line.l(r:p1ulv1429-udm3004) Units=km Length=0.00887559 bus1=udm3004.1.2 bus2=p1ulv1429.1.2 switch=n enabled=y phases=2 Linecode=1P_UG_AL_1/0_Brenau_0_416_0_2_2

New Line.l(r:p1ulv1432-udm3004) Units=km Length=0.00769259 bus1=udm3004.1.2 bus2=p1ulv1432.1.2 switch=n enabled=y phases=2 Linecode=1P_UG_AL_1/0_Brenau_0_416_0_2_2

New Line.l(r:p1ulv1433-udm3004) Units=km Length=0.0137808 bus1=udm3004.1.2 bus2=p1ulv1433.1.2 switch=n enabled=y phases=2 Linecode=1P_UG_AL_1/0_Brenau_0_416_0_2_2

New Line.l(r:udm3004-udt716lv) Units=km Length=0.018121 bus1=udt716lv.1.2 bus2=udm3004.1.2 switch=n enabled=y phases=2 Linecode=1P_UG_AL_1/0_Brenau_0_416_0_2_2

New Line.l(r:p1ulv1425-udt717lv) Units=km Length=0.0117124 bus1=udt717lv.1.2 bus2=p1ulv1425.1.2 switch=n enabled=y phases=2 Linecode=1P_UG_AL_1/0_Brenau_0_416_0_2_2

New Line.l(r:p1ulv1427-udt717lv) Units=km Length=0.012257900000000002 bus1=udt717lv.1.2 bus2=p1ulv1427.1.2 switch=n enabled=y phases=2 Linecode=1P_UG_AL_1/0_Brenau_0_416_0_2_2

New Line.l(r:p1ulv1424-udm3009) Units=km Length=0.0128074 bus1=udm3009.1.2 bus2=p1ulv1424.1.2 switch=n enabled=y phases=2 Linecode=1P_UG_AL_1/0_Brenau_0_416_0_2_2

New Line.l(r:udm3009-udt717lv) Units=km Length=0.00612074 bus1=udt717lv.1.2 bus2=udm3009.1.2 switch=n enabled=y phases=2 Linecode=1P_UG_AL_1/0_Brenau_0_416_0_2_2

New Line.l(r:p1ulv1436-udt718lv) Units=km Length=0.0148715 bus1=udt718lv.1.2 bus2=p1ulv1436.1.2 switch=n enabled=y phases=2 Linecode=1P_UG_AL_1/0_Brenau_0_416_0_2_2

New Line.l(r:p1ulv1437-udt718lv) Units=km Length=0.00636347 bus1=udt718lv.1.2 bus2=p1ulv1437.1.2 switch=n enabled=y phases=2 Linecode=1P_UG_AL_1/0_Brenau_0_416_0_2_2

New Line.l(r:p1ulv1438-udt718lv) Units=km Length=0.0210062 bus1=udt718lv.1.2 bus2=p1ulv1438.1.2 switch=n enabled=y phases=2 Linecode=1P_UG_AL_1/0_Brenau_0_416_0_2_2

New Line.l(r:p1ulv1439-udt718lv) Units=km Length=0.0275325 bus1=udt718lv.1.2 bus2=p1ulv1439.1.2 switch=n enabled=y phases=2 Linecode=1P_UG_AL_1/0_Brenau_0_416_0_2_2

New Line.l(r:p1ulv1452-udt718lv) Units=km Length=0.0165229 bus1=udt718lv.1.2 bus2=p1ulv1452.1.2 switch=n enabled=y phases=2 Linecode=1P_UG_AL_1/0_Brenau_0_416_0_2_2

New Line.l(r:p1ulv1441-udm3016) Units=km Length=0.03663860000000001 bus1=udm3016.1.2 bus2=p1ulv1441.1.2 switch=n enabled=y phases=2 Linecode=1P_UG_AL_1/0_Brenau_0_416_0_2_2

New Line.l(r:p1ulv1450-udm3016) Units=km Length=0.0161874 bus1=udm3016.1.2 bus2=p1ulv1450.1.2 switch=n enabled=y phases=2 Linecode=1P_UG_AL_1/0_Brenau_0_416_0_2_2

New Line.l(r:udm3016-udt718lv) Units=km Length=0.0091332 bus1=udt718lv.1.2 bus2=udm3016.1.2 switch=n enabled=y phases=2 Linecode=1P_UG_AL_1/0_Brenau_0_416_0_2_2

New Line.l(r:p1ulv1445-udt719lv) Units=km Length=0.00726555 bus1=udt719lv.1.2 bus2=p1ulv1445.1.2 switch=n enabled=y phases=2 Linecode=1P_UG_AL_1/0_Brenau_0_416_0_2_2

New Line.l(r:p1ulv1446-udt719lv) Units=km Length=0.0147208 bus1=udt719lv.1.2 bus2=p1ulv1446.1.2 switch=n enabled=y phases=2 Linecode=1P_UG_AL_1/0_Brenau_0_416_0_2_2

New Line.l(r:p1ulv1447-udt719lv) Units=km Length=0.020876 bus1=udt719lv.1.2 bus2=p1ulv1447.1.2 switch=n enabled=y phases=2 Linecode=1P_UG_AL_1/0_Brenau_0_416_0_2_2

New Line.l(r:p1ulv1448-udt719lv) Units=km Length=0.025988 bus1=udt719lv.1.2 bus2=p1ulv1448.1.2 switch=n enabled=y phases=2 Linecode=1P_UG_AL_1/0_Brenau_0_416_0_2_2

New Line.l(r:p1ulv1443-udm3021) Units=km Length=0.0336273 bus1=udm3021.1.2 bus2=p1ulv1443.1.2 switch=n enabled=y phases=2 Linecode=1P_UG_AL_1/0_Brenau_0_416_0_2_2

New Line.l(r:p1ulv1444-udm3021) Units=km Length=0.0328871 bus1=udm3021.1.2 bus2=p1ulv1444.1.2 switch=n enabled=y phases=2 Linecode=1P_UG_AL_1/0_Brenau_0_416_0_2_2

New Line.l(r:p1ulv1477-udm3021) Units=km Length=0.00963872 bus1=udm3021.1.2 bus2=p1ulv1477.1.2 switch=n enabled=y phases=2 Linecode=1P_UG_AL_1/0_Brenau_0_416_0_2_2

New Line.l(r:p1ulv1440-udm3019) Units=km Length=0.0353832 bus1=udm3019.1.2 bus2=p1ulv1440.1.2 switch=n enabled=y phases=2 Linecode=1P_UG_AL_1/0_Brenau_0_416_0_2_2

New Line.l(r:p1ulv1442-udm3019) Units=km Length=0.0341723 bus1=udm3019.1.2 bus2=p1ulv1442.1.2 switch=n enabled=y phases=2 Linecode=1P_UG_AL_1/0_Brenau_0_416_0_2_2

New Line.l(r:udm3019-udm3021) Units=km Length=0.00884509 bus1=udm3021.1.2 bus2=udm3019.1.2 switch=n enabled=y phases=2 Linecode=1P_UG_AL_1/0_Brenau_0_416_0_2_2

New Line.l(r:udm3021-udt719lv) Units=km Length=0.00884509 bus1=udt719lv.1.2 bus2=udm3021.1.2 switch=n enabled=y phases=2 Linecode=1P_UG_AL_4/0_Sweetbriar_0_416_0_2_2

New Line.l(r:p1ulv1483-udm3031) Units=km Length=0.0104827 bus1=udm3031.1.2 bus2=p1ulv1483.1.2 switch=n enabled=y phases=2 Linecode=1P_UG_AL_1/0_Brenau_0_416_0_2_2

New Line.l(r:p1ulv1482-udm3030) Units=km Length=0.0185858 bus1=udm3030.1.2 bus2=p1ulv1482.1.2 switch=n enabled=y phases=2 Linecode=1P_UG_AL_1/0_Brenau_0_416_0_2_2

New Line.l(r:p1ulv1480-udm3028) Units=km Length=0.0257457 bus1=udm3028.1.2 bus2=p1ulv1480.1.2 switch=n enabled=y phases=2 Linecode=1P_UG_AL_1/0_Brenau_0_416_0_2_2

New Line.l(r:p1ulv1481-udm3028) Units=km Length=0.0223402 bus1=udm3028.1.2 bus2=p1ulv1481.1.2 switch=n enabled=y phases=2 Linecode=1P_UG_AL_1/0_Brenau_0_416_0_2_2

New Line.l(r:udm3028-udm3030) Units=km Length=0.008460210000000001 bus1=udm3030.1.2 bus2=udm3028.1.2 switch=n enabled=y phases=2 Linecode=1P_UG_AL_1/0_Brenau_0_416_0_2_2

New Line.l(r:udm3030-udm3031) Units=km Length=0.00884509 bus1=udm3031.1.2 bus2=udm3030.1.2 switch=n enabled=y phases=2 Linecode=1P_UG_AL_2/0_Converse_0_416_0_2_2

New Line.l(r:udm3031-udt719lv) Units=km Length=0.0177018 bus1=udt719lv.1.2 bus2=udm3031.1.2 switch=n enabled=y phases=2 Linecode=1P_UG_AL_4/0_Sweetbriar_0_416_0_2_2

New Line.l(r:p1ulv1473-udt720lv) Units=km Length=0.02093 bus1=udt720lv.1.2 bus2=p1ulv1473.1.2 switch=n enabled=y phases=2 Linecode=1P_UG_AL_1/0_Brenau_0_416_0_2_2

New Line.l(r:p1ulv1472-udm3035) Units=km Length=0.0188441 bus1=udm3035.1.2 bus2=p1ulv1472.1.2 switch=n enabled=y phases=2 Linecode=1P_UG_AL_1/0_Brenau_0_416_0_2_2

New Line.l(r:p1ulv1469-udm3033) Units=km Length=0.0153208 bus1=udm3033.1.2 bus2=p1ulv1469.1.2 switch=n enabled=y phases=2 Linecode=1P_UG_AL_1/0_Brenau_0_416_0_2_2

New Line.l(r:p1ulv1471-udm3033) Units=km Length=0.016878600000000004 bus1=udm3033.1.2 bus2=p1ulv1471.1.2 switch=n enabled=y phases=2 Linecode=1P_UG_AL_1/0_Brenau_0_416_0_2_2

New Line.l(r:udm3033-udm3035) Units=km Length=0.00724859 bus1=udm3035.1.2 bus2=udm3033.1.2 switch=n enabled=y phases=2 Linecode=1P_UG_AL_1/0_Brenau_0_416_0_2_2

New Line.l(r:udm3035-udt720lv) Units=km Length=0.00724859 bus1=udt720lv.1.2 bus2=udm3035.1.2 switch=n enabled=y phases=2 Linecode=1P_UG_AL_4/0_Sweetbriar_0_416_0_2_2

New Line.l(r:p1ulv1474-udm3037) Units=km Length=0.0183527 bus1=udm3037.1.2 bus2=p1ulv1474.1.2 switch=n enabled=y phases=2 Linecode=1P_UG_AL_1/0_Brenau_0_416_0_2_2

New Line.l(r:p1ulv1475-udm3038) Units=km Length=0.0167682 bus1=udm3038.1.2 bus2=p1ulv1475.1.2 switch=n enabled=y phases=2 Linecode=1P_UG_AL_1/0_Brenau_0_416_0_2_2

New Line.l(r:p1ulv1476-udm3038) Units=km Length=0.0155045 bus1=udm3038.1.2 bus2=p1ulv1476.1.2 switch=n enabled=y phases=2 Linecode=1P_UG_AL_1/0_Brenau_0_416_0_2_2

New Line.l(r:p1ulv1449-udm3032) Units=km Length=0.0121219 bus1=udm3032.1.2 bus2=p1ulv1449.1.2 switch=n enabled=y phases=2 Linecode=1P_UG_AL_1/0_Brenau_0_416_0_2_2

New Line.l(r:udm3032-udm3038) Units=km Length=0.00721268 bus1=udm3038.1.2 bus2=udm3032.1.2 switch=n enabled=y phases=2 Linecode=1P_UG_AL_1/0_Brenau_0_416_0_2_2

New Line.l(r:udm3037-udm3038) Units=km Length=0.0076067700000000005 bus1=udm3037.1.2 bus2=udm3038.1.2 switch=n enabled=y phases=2 Linecode=1P_UG_AL_1/0_Brenau_0_416_0_2_2

New Line.l(r:udm3037-udt720lv) Units=km Length=0.00761497 bus1=udt720lv.1.2 bus2=udm3037.1.2 switch=n enabled=y phases=2 Linecode=1P_UG_AL_4/0_Sweetbriar_0_416_0_2_2

New Line.l(r:p1ulv1453-udt721lv) Units=km Length=0.0195779 bus1=udt721lv.1.2 bus2=p1ulv1453.1.2 switch=n enabled=y phases=2 Linecode=1P_UG_AL_1/0_Brenau_0_416_0_2_2

New Line.l(r:p1ulv1454-udt721lv) Units=km Length=0.0159108 bus1=udt721lv.1.2 bus2=p1ulv1454.1.2 switch=n enabled=y phases=2 Linecode=1P_UG_AL_1/0_Brenau_0_416_0_2_2

New Line.l(r:p1ulv1455-udt721lv) Units=km Length=0.0142254 bus1=udt721lv.1.2 bus2=p1ulv1455.1.2 switch=n enabled=y phases=2 Linecode=1P_UG_AL_1/0_Brenau_0_416_0_2_2

New Line.l(r:p1ulv1462-udt721lv) Units=km Length=0.017639200000000004 bus1=udt721lv.1.2 bus2=p1ulv1462.1.2 switch=n enabled=y phases=2 Linecode=1P_UG_AL_1/0_Brenau_0_416_0_2_2

New Line.l(r:p1ulv1456-udm3043) Units=km Length=0.0116619 bus1=udm3043.1.2 bus2=p1ulv1456.1.2 switch=n enabled=y phases=2 Linecode=1P_UG_AL_1/0_Brenau_0_416_0_2_2

New Line.l(r:udm3043-udt721lv) Units=km Length=0.00974123 bus1=udt721lv.1.2 bus2=udm3043.1.2 switch=n enabled=y phases=2 Linecode=1P_UG_AL_1/0_Brenau_0_416_0_2_2

New Line.l(r:p1ulv1457-udm3044) Units=km Length=0.0121135 bus1=udm3044.1.2 bus2=p1ulv1457.1.2 switch=n enabled=y phases=2 Linecode=1P_UG_AL_1/0_Brenau_0_416_0_2_2

New Line.l(r:p1ulv1459-udm3044) Units=km Length=0.0129192 bus1=udm3044.1.2 bus2=p1ulv1459.1.2 switch=n enabled=y phases=2 Linecode=1P_UG_AL_1/0_Brenau_0_416_0_2_2

New Line.l(r:p1ulv1461-udm3044) Units=km Length=0.0136495 bus1=udm3044.1.2 bus2=p1ulv1461.1.2 switch=n enabled=y phases=2 Linecode=1P_UG_AL_1/0_Brenau_0_416_0_2_2

New Line.l(r:udm3044-udt721lv) Units=km Length=0.0091924 bus1=udt721lv.1.2 bus2=udm3044.1.2 switch=n enabled=y phases=2 Linecode=1P_UG_AL_4/0_Sweetbriar_0_416_0_2_2

New Line.l(r:p1ulv1464-udt722lv) Units=km Length=0.0131204 bus1=udt722lv.1.2 bus2=p1ulv1464.1.2 switch=n enabled=y phases=2 Linecode=1P_UG_AL_1/0_Brenau_0_416_0_2_2

New Line.l(r:p1ulv1465-udt722lv) Units=km Length=0.013097 bus1=udt722lv.1.2 bus2=p1ulv1465.1.2 switch=n enabled=y phases=2 Linecode=1P_UG_AL_1/0_Brenau_0_416_0_2_2

New Line.l(r:p1ulv1467-udt722lv) Units=km Length=0.0154145 bus1=udt722lv.1.2 bus2=p1ulv1467.1.2 switch=n enabled=y phases=2 Linecode=1P_UG_AL_1/0_Brenau_0_416_0_2_2

New Line.l(r:p1ulv1460-udm3048) Units=km Length=0.0130433 bus1=udm3048.1.2 bus2=p1ulv1460.1.2 switch=n enabled=y phases=2 Linecode=1P_UG_AL_1/0_Brenau_0_416_0_2_2

New Line.l(r:p1ulv1468-udm3048) Units=km Length=0.017634 bus1=udm3048.1.2 bus2=p1ulv1468.1.2 switch=n enabled=y phases=2 Linecode=1P_UG_AL_1/0_Brenau_0_416_0_2_2

New Line.l(r:udm3048-udt722lv) Units=km Length=0.00930128 bus1=udt722lv.1.2 bus2=udm3048.1.2 switch=n enabled=y phases=2 Linecode=1P_UG_AL_1/0_Brenau_0_416_0_2_2

New Line.l(r:p1ulv1463-udm3049) Units=km Length=0.0135261 bus1=udm3049.1.2 bus2=p1ulv1463.1.2 switch=n enabled=y phases=2 Linecode=1P_UG_AL_1/0_Brenau_0_416_0_2_2

New Line.l(r:udm3049-udt722lv) Units=km Length=0.00747974 bus1=udt722lv.1.2 bus2=udm3049.1.2 switch=n enabled=y phases=2 Linecode=1P_UG_AL_1/0_Brenau_0_416_0_2_2

New Line.l(r:p1ulv1488-udt723lv) Units=km Length=0.0282253 bus1=udt723lv.1.2 bus2=p1ulv1488.1.2 switch=n enabled=y phases=2 Linecode=1P_UG_AL_1/0_Brenau_0_416_0_2_2

New Line.l(r:p1ulv1489-udt723lv) Units=km Length=0.0313055 bus1=udt723lv.1.2 bus2=p1ulv1489.1.2 switch=n enabled=y phases=2 Linecode=1P_UG_AL_1/0_Brenau_0_416_0_2_2

New Line.l(r:p1ulv1478-udm3054) Units=km Length=0.0323238 bus1=udm3054.1.2 bus2=p1ulv1478.1.2 switch=n enabled=y phases=2 Linecode=1P_UG_AL_1/0_Brenau_0_416_0_2_2

New Line.l(r:p1ulv1479-udm3054) Units=km Length=0.0287395 bus1=udm3054.1.2 bus2=p1ulv1479.1.2 switch=n enabled=y phases=2 Linecode=1P_UG_AL_1/0_Brenau_0_416_0_2_2

New Line.l(r:udm3054-udt723lv) Units=km Length=0.0269241 bus1=udt723lv.1.2 bus2=udm3054.1.2 switch=n enabled=y phases=2 Linecode=1P_UG_AL_1/0_Brenau_0_416_0_2_2

New Line.l(r:p1ulv1486-udm3056) Units=km Length=0.0231148 bus1=udm3056.1.2 bus2=p1ulv1486.1.2 switch=n enabled=y phases=2 Linecode=1P_UG_AL_1/0_Brenau_0_416_0_2_2

New Line.l(r:p1ulv1487-udm3056) Units=km Length=0.025464000000000004 bus1=udm3056.1.2 bus2=p1ulv1487.1.2 switch=n enabled=y phases=2 Linecode=1P_UG_AL_1/0_Brenau_0_416_0_2_2

New Line.l(r:p1ulv1499-udm3060) Units=km Length=0.0165306 bus1=udm3060.1.2 bus2=p1ulv1499.1.2 switch=n enabled=y phases=2 Linecode=1P_UG_AL_1/0_Brenau_0_416_0_2_2

New Line.l(r:p1ulv1500-udm3060) Units=km Length=0.00857429 bus1=udm3060.1.2 bus2=p1ulv1500.1.2 switch=n enabled=y phases=2 Linecode=1P_UG_AL_1/0_Brenau_0_416_0_2_2

New Line.l(r:udm3056-udm3060) Units=km Length=0.0092274 bus1=udm3056.1.2 bus2=udm3060.1.2 switch=n enabled=y phases=2 Linecode=1P_UG_AL_1/0_Brenau_0_416_0_2_2

New Line.l(r:udm3056-udt723lv) Units=km Length=0.00923736 bus1=udt723lv.1.2 bus2=udm3056.1.2 switch=n enabled=y phases=2 Linecode=1P_UG_AL_2/0_Converse_0_416_0_2_2

New Line.l(r:p1ulv1484-udt724lv) Units=km Length=0.0131936 bus1=udt724lv.1.2 bus2=p1ulv1484.1.2 switch=n enabled=y phases=2 Linecode=1P_UG_AL_1/0_Brenau_0_416_0_2_2

New Line.l(r:p1ulv12044-udt724lv) Units=km Length=0.037601 bus1=udt724lv.1.2 bus2=p1ulv12044.1.2 switch=n enabled=y phases=2 Linecode=1P_UG_AL_1/0_Brenau_0_416_0_2_2

New Line.l(r:p1ulv12049-udt724lv) Units=km Length=0.013773400000000002 bus1=udt724lv.1.2 bus2=p1ulv12049.1.2 switch=n enabled=y phases=2 Linecode=1P_UG_AL_1/0_Brenau_0_416_0_2_2

New Line.l(r:p1ulv1485-udm3063) Units=km Length=0.0178944 bus1=udm3063.1.2 bus2=p1ulv1485.1.2 switch=n enabled=y phases=2 Linecode=1P_UG_AL_1/0_Brenau_0_416_0_2_2

New Line.l(r:p1ulv1501-udm3064) Units=km Length=0.0228162 bus1=udm3064.1.2 bus2=p1ulv1501.1.2 switch=n enabled=y phases=2 Linecode=1P_UG_AL_1/0_Brenau_0_416_0_2_2

New Line.l(r:p1ulv1502-udm3064) Units=km Length=0.0275328 bus1=udm3064.1.2 bus2=p1ulv1502.1.2 switch=n enabled=y phases=2 Linecode=1P_UG_AL_1/0_Brenau_0_416_0_2_2

New Line.l(r:udm3063-udm3064) Units=km Length=0.00699201 bus1=udm3063.1.2 bus2=udm3064.1.2 switch=n enabled=y phases=2 Linecode=1P_UG_AL_1/0_Brenau_0_416_0_2_2

New Line.l(r:udm3063-udt724lv) Units=km Length=0.0069892800000000005 bus1=udt724lv.1.2 bus2=udm3063.1.2 switch=n enabled=y phases=2 Linecode=1P_UG_AL_1/0_Brenau_0_416_0_2_2

New Line.l(r:p1ulv12050-udm3068) Units=km Length=0.0137993 bus1=udm3068.1.2 bus2=p1ulv12050.1.2 switch=n enabled=y phases=2 Linecode=1P_UG_AL_1/0_Brenau_0_416_0_2_2

New Line.l(r:p1ulv12051-udm3069) Units=km Length=0.0145734 bus1=udm3069.1.2 bus2=p1ulv12051.1.2 switch=n enabled=y phases=2 Linecode=1P_UG_AL_1/0_Brenau_0_416_0_2_2

New Line.l(r:udm3068-udm3069) Units=km Length=0.00730924 bus1=udm3068.1.2 bus2=udm3069.1.2 switch=n enabled=y phases=2 Linecode=1P_UG_AL_1/0_Brenau_0_416_0_2_2

New Line.l(r:udm3068-udt724lv) Units=km Length=0.00730083 bus1=udt724lv.1.2 bus2=udm3068.1.2 switch=n enabled=y phases=2 Linecode=1P_UG_AL_1/0_Brenau_0_416_0_2_2

New Line.l(r:p1ulv1490-udm3070) Units=km Length=0.00819524 bus1=udm3070.1.2 bus2=p1ulv1490.1.2 switch=n enabled=y phases=2 Linecode=1P_UG_AL_1/0_Brenau_0_416_0_2_2

New Line.l(r:p1ulv1491-udm3070) Units=km Length=0.0165983 bus1=udm3070.1.2 bus2=p1ulv1491.1.2 switch=n enabled=y phases=2 Linecode=1P_UG_AL_1/0_Brenau_0_416_0_2_2

New Line.l(r:p1ulv1492-udm3070) Units=km Length=0.0219807 bus1=udm3070.1.2 bus2=p1ulv1492.1.2 switch=n enabled=y phases=2 Linecode=1P_UG_AL_1/0_Brenau_0_416_0_2_2

New Line.l(r:p1ulv1493-udm3070) Units=km Length=0.0273325 bus1=udm3070.1.2 bus2=p1ulv1493.1.2 switch=n enabled=y phases=2 Linecode=1P_UG_AL_1/0_Brenau_0_416_0_2_2

New Line.l(r:p1ulv1494-udm3070) Units=km Length=0.0330674 bus1=udm3070.1.2 bus2=p1ulv1494.1.2 switch=n enabled=y phases=2 Linecode=1P_UG_AL_1/0_Brenau_0_416_0_2_2

New Line.l(r:udm3070-udt725lv) Units=km Length=0.008460210000000001 bus1=udt725lv.1.2 bus2=udm3070.1.2 switch=n enabled=y phases=2 Linecode=1P_UG_AL_4/0_Sweetbriar_0_416_0_2_2

New Line.l(r:p1ulv1498-udm3077) Units=km Length=0.0380619 bus1=udm3077.1.2 bus2=p1ulv1498.1.2 switch=n enabled=y phases=2 Linecode=1P_UG_AL_1/0_Brenau_0_416_0_2_2

New Line.l(r:p1ulv1497-udm3076) Units=km Length=0.0381387 bus1=udm3076.1.2 bus2=p1ulv1497.1.2 switch=n enabled=y phases=2 Linecode=1P_UG_AL_1/0_Brenau_0_416_0_2_2

New Line.l(r:p1ulv1495-udm3075) Units=km Length=0.0383798 bus1=udm3075.1.2 bus2=p1ulv1495.1.2 switch=n enabled=y phases=2 Linecode=1P_UG_AL_1/0_Brenau_0_416_0_2_2

New Line.l(r:udm3075-udm3076) Units=km Length=0.00923736 bus1=udm3076.1.2 bus2=udm3075.1.2 switch=n enabled=y phases=2 Linecode=1P_UG_AL_1/0_Brenau_0_416_0_2_2

New Line.l(r:udm3076-udm3077) Units=km Length=0.009226510000000002 bus1=udm3077.1.2 bus2=udm3076.1.2 switch=n enabled=y phases=2 Linecode=1P_UG_AL_1/0_Brenau_0_416_0_2_2

New Line.l(r:udm3077-udt725lv) Units=km Length=0.00923736 bus1=udt725lv.1.2 bus2=udm3077.1.2 switch=n enabled=y phases=2 Linecode=1P_UG_AL_2/0_Converse_0_416_0_2_2

New Line.l(r:p1ulv12045-udt726lv) Units=km Length=0.0272331 bus1=udt726lv.1.2 bus2=p1ulv12045.1.2 switch=n enabled=y phases=2 Linecode=1P_UG_AL_1/0_Brenau_0_416_0_2_2

New Line.l(r:p1ulv12046-udt726lv) Units=km Length=0.0227497 bus1=udt726lv.1.2 bus2=p1ulv12046.1.2 switch=n enabled=y phases=2 Linecode=1P_UG_AL_1/0_Brenau_0_416_0_2_2

New Line.l(r:p1ulv12047-udt726lv) Units=km Length=0.016009000000000002 bus1=udt726lv.1.2 bus2=p1ulv12047.1.2 switch=n enabled=y phases=2 Linecode=1P_UG_AL_1/0_Brenau_0_416_0_2_2

New Line.l(r:p1ulv12048-udt726lv) Units=km Length=0.00896822 bus1=udt726lv.1.2 bus2=p1ulv12048.1.2 switch=n enabled=y phases=2 Linecode=1P_UG_AL_1/0_Brenau_0_416_0_2_2

New Line.l(r:p1ulv12150-udt726lv) Units=km Length=0.0141029 bus1=udt726lv.1.2 bus2=p1ulv12150.1.2 switch=n enabled=y phases=2 Linecode=1P_UG_AL_1/0_Brenau_0_416_0_2_2

New Line.l(r:p1ulv1503-udm3078) Units=km Length=0.0409762 bus1=udm3078.1.2 bus2=p1ulv1503.1.2 switch=n enabled=y phases=2 Linecode=1P_UG_AL_1/0_Brenau_0_416_0_2_2

New Line.l(r:p1ulv12041-udm3078) Units=km Length=0.0415157 bus1=udm3078.1.2 bus2=p1ulv12041.1.2 switch=n enabled=y phases=2 Linecode=1P_UG_AL_1/0_Brenau_0_416_0_2_2

New Line.l(r:p1ulv12042-udm3078) Units=km Length=0.0426309 bus1=udm3078.1.2 bus2=p1ulv12042.1.2 switch=n enabled=y phases=2 Linecode=1P_UG_AL_1/0_Brenau_0_416_0_2_2

New Line.l(r:p1ulv12043-udm3078) Units=km Length=0.0443806 bus1=udm3078.1.2 bus2=p1ulv12043.1.2 switch=n enabled=y phases=2 Linecode=1P_UG_AL_1/0_Brenau_0_416_0_2_2

New Line.l(r:udm3078-udt726lv) Units=km Length=0.00801989 bus1=udt726lv.1.2 bus2=udm3078.1.2 switch=n enabled=y phases=2 Linecode=1P_UG_AL_2/0_Converse_0_416_0_2_2

New Line.l(r:p1ulv12152-udm3087) Units=km Length=0.014162 bus1=udm3087.1.2 bus2=p1ulv12152.1.2 switch=n enabled=y phases=2 Linecode=1P_UG_AL_1/0_Brenau_0_416_0_2_2

New Line.l(r:p1ulv12154-udm3088) Units=km Length=0.0149215 bus1=udm3088.1.2 bus2=p1ulv12154.1.2 switch=n enabled=y phases=2 Linecode=1P_UG_AL_1/0_Brenau_0_416_0_2_2

New Line.l(r:p1ulv12155-udm3088) Units=km Length=0.0147057 bus1=udm3088.1.2 bus2=p1ulv12155.1.2 switch=n enabled=y phases=2 Linecode=1P_UG_AL_1/0_Brenau_0_416_0_2_2

New Line.l(r:udm3087-udm3088) Units=km Length=0.008013720000000002 bus1=udm3087.1.2 bus2=udm3088.1.2 switch=n enabled=y phases=2 Linecode=1P_UG_AL_1/0_Brenau_0_416_0_2_2

New Line.l(r:udm3087-udt726lv) Units=km Length=0.00802776 bus1=udt726lv.1.2 bus2=udm3087.1.2 switch=n enabled=y phases=2 Linecode=1P_UG_AL_2/0_Converse_0_416_0_2_2

New Line.l(r:p1ulv7388-udt3342lv) Units=km Length=0.0496597 bus1=udt3342lv.1.2 bus2=p1ulv7388.1.2 switch=n enabled=y phases=2 Linecode=1P_UG_AL_1/0_Brenau_0_416_0_2_2

New Line.l(r:p1ulv16873-udt3342lv) Units=km Length=0.0195727 bus1=udt3342lv.1.2 bus2=p1ulv16873.1.2 switch=n enabled=y phases=2 Linecode=1P_UG_AL_1/0_Brenau_0_416_0_2_2

New Line.l(r:p1ulv21897-udm13150) Units=km Length=0.0190148 bus1=udm13150.1.2 bus2=p1ulv21897.1.2 switch=n enabled=y phases=2 Linecode=1P_UG_AL_1/0_Brenau_0_416_0_2_2

New Line.l(r:udm13150-udt3342lv) Units=km Length=0.00776457 bus1=udt3342lv.1.2 bus2=udm13150.1.2 switch=n enabled=y phases=2 Linecode=1P_UG_AL_1/0_Brenau_0_416_0_2_2

New Line.l(r:p1ulv10115-udt4713lv) Units=km Length=0.025729 bus1=udt4713lv.1.2 bus2=p1ulv10115.1.2 switch=n enabled=y phases=2 Linecode=1P_OH_AL_2/0_Rucina_0_416_0_2_2

New Line.l(r:p1ulv10111-udm17843) Units=km Length=0.024509200000000002 bus1=udm17843.1.2 bus2=p1ulv10111.1.2 switch=n enabled=y phases=2 Linecode=1P_OH_AL_2/0_Rucina_0_416_0_2_2

New Line.l(r:udm17843-udt4713lv) Units=km Length=0.0091505 bus1=udt4713lv.1.2 bus2=udm17843.1.2 switch=n enabled=y phases=2 Linecode=1P_OH_AL_2/0_Rucina_0_416_0_2_2

New Line.l(r:p1ulv13946-udt4714lv) Units=km Length=0.0191982 bus1=udt4714lv.1.2 bus2=p1ulv13946.1.2 switch=n enabled=y phases=2 Linecode=1P_OH_AL_2/0_Rucina_0_416_0_2_2

New Line.l(r:p1ulv34353-udt4714lv) Units=km Length=0.023539 bus1=udt4714lv.1.2 bus2=p1ulv34353.1.2 switch=n enabled=y phases=2 Linecode=1P_OH_AL_2/0_Rucina_0_416_0_2_2

New Line.l(r:p1ulv10112-udm17845) Units=km Length=0.0208119 bus1=udm17845.1.2 bus2=p1ulv10112.1.2 switch=n enabled=y phases=2 Linecode=1P_OH_AL_2/0_Rucina_0_416_0_2_2

New Line.l(r:udm17845-udt4714lv) Units=km Length=0.012726300000000001 bus1=udt4714lv.1.2 bus2=udm17845.1.2 switch=n enabled=y phases=2 Linecode=1P_OH_AL_2/0_Rucina_0_416_0_2_2

New Line.l(r:p1ulv18382-udm17847) Units=km Length=0.0236791 bus1=udm17847.1.2 bus2=p1ulv18382.1.2 switch=n enabled=y phases=2 Linecode=1P_OH_AL_2/0_Rucina_0_416_0_2_2

New Line.l(r:p1ulv27620-udm17847) Units=km Length=0.0197408 bus1=udm17847.1.2 bus2=p1ulv27620.1.2 switch=n enabled=y phases=2 Linecode=1P_OH_AL_2/0_Rucina_0_416_0_2_2

New Line.l(r:udm17847-udt4714lv) Units=km Length=0.0183849 bus1=udt4714lv.1.2 bus2=udm17847.1.2 switch=n enabled=y phases=2 Linecode=1P_OH_AL_2/0_Rucina_0_416_0_2_2

New Line.l(r:p1ulv10113-udt4715lv) Units=km Length=0.0205877 bus1=udt4715lv.1.2 bus2=p1ulv10113.1.2 switch=n enabled=y phases=2 Linecode=1P_OH_AL_2/0_Rucina_0_416_0_2_2

New Line.l(r:p1ulv19873-udt4715lv) Units=km Length=0.0217819 bus1=udt4715lv.1.2 bus2=p1ulv19873.1.2 switch=n enabled=y phases=2 Linecode=1P_OH_AL_2/0_Rucina_0_416_0_2_2

New Line.l(r:p1ulv23761-udt4716lv) Units=km Length=0.0190774 bus1=udt4716lv.1.2 bus2=p1ulv23761.1.2 switch=n enabled=y phases=2 Linecode=1P_OH_AL_2/0_Rucina_0_416_0_2_2

New Line.l(r:p1ulv10114-udm17852) Units=km Length=0.0209464 bus1=udm17852.1.2 bus2=p1ulv10114.1.2 switch=n enabled=y phases=2 Linecode=1P_OH_AL_2/0_Rucina_0_416_0_2_2

New Line.l(r:p1ulv20715-udm17852) Units=km Length=0.02018 bus1=udm17852.1.2 bus2=p1ulv20715.1.2 switch=n enabled=y phases=2 Linecode=1P_OH_AL_2/0_Rucina_0_416_0_2_2

New Line.l(r:udm17852-udt4716lv) Units=km Length=0.00894162 bus1=udt4716lv.1.2 bus2=udm17852.1.2 switch=n enabled=y phases=2 Linecode=1P_OH_AL_2/0_Rucina_0_416_0_2_2

New Line.l(r:p1ulv10116-udm17855) Units=km Length=0.018977500000000005 bus1=udm17855.1.2 bus2=p1ulv10116.1.2 switch=n enabled=y phases=2 Linecode=1P_OH_AL_2/0_Rucina_0_416_0_2_2

New Line.l(r:udm17855-udt4717lv) Units=km Length=0.0234115 bus1=udt4717lv.1.2 bus2=udm17855.1.2 switch=n enabled=y phases=2 Linecode=1P_OH_AL_2/0_Rucina_0_416_0_2_2

New Line.l(r:p1ulv13689-udm17856) Units=km Length=0.0250532 bus1=udm17856.1.2 bus2=p1ulv13689.1.2 switch=n enabled=y phases=2 Linecode=1P_OH_AL_2/0_Rucina_0_416_0_2_2

New Line.l(r:udm17856-udt4717lv) Units=km Length=0.0345354 bus1=udt4717lv.1.2 bus2=udm17856.1.2 switch=n enabled=y phases=2 Linecode=1P_OH_AL_4/0_Zuzara_0_416_0_2_2

New Line.l(r:p1ulv10117-udt4718lv) Units=km Length=0.0200446 bus1=udt4718lv.1.2 bus2=p1ulv10117.1.2 switch=n enabled=y phases=2 Linecode=1P_OH_AL_2/0_Rucina_0_416_0_2_2

New Line.l(r:p1ulv24791-udt4718lv) Units=km Length=0.022589200000000004 bus1=udt4718lv.1.2 bus2=p1ulv24791.1.2 switch=n enabled=y phases=2 Linecode=1P_OH_AL_2/0_Rucina_0_416_0_2_2

New Line.l(r:p1ulv21937-udm17859) Units=km Length=0.0220514 bus1=udm17859.1.2 bus2=p1ulv21937.1.2 switch=n enabled=y phases=2 Linecode=1P_OH_AL_2/0_Rucina_0_416_0_2_2

New Line.l(r:p1ulv23510-udm17861) Units=km Length=0.0179076 bus1=udm17861.1.2 bus2=p1ulv23510.1.2 switch=n enabled=y phases=2 Linecode=1P_OH_AL_2/0_Rucina_0_416_0_2_2

New Line.l(r:p1ulv35657-udm17864) Units=km Length=0.021579500000000005 bus1=udm17864.1.2 bus2=p1ulv35657.1.2 switch=n enabled=y phases=2 Linecode=1P_OH_AL_2/0_Rucina_0_416_0_2_2

New Line.l(r:udm17861-udm17864) Units=km Length=0.0114109 bus1=udm17861.1.2 bus2=udm17864.1.2 switch=n enabled=y phases=2 Linecode=1P_OH_AL_2/0_Rucina_0_416_0_2_2

New Line.l(r:udm17859-udm17861) Units=km Length=0.0114109 bus1=udm17859.1.2 bus2=udm17861.1.2 switch=n enabled=y phases=2 Linecode=1P_OH_AL_2/0_Rucina_0_416_0_2_2

New Line.l(r:udm17859-udt4718lv) Units=km Length=0.018116 bus1=udt4718lv.1.2 bus2=udm17859.1.2 switch=n enabled=y phases=2 Linecode=1P_OH_AL_2/0_Rucina_0_416_0_2_2

New Line.l(r:p1ulv30938-udm17863) Units=km Length=0.0203327 bus1=udm17863.1.2 bus2=p1ulv30938.1.2 switch=n enabled=y phases=2 Linecode=1P_OH_AL_2/0_Rucina_0_416_0_2_2

New Line.l(r:p1ulv35920-udm17863) Units=km Length=0.0182702 bus1=udm17863.1.2 bus2=p1ulv35920.1.2 switch=n enabled=y phases=2 Linecode=1P_OH_AL_2/0_Rucina_0_416_0_2_2

New Line.l(r:p1ulv13859-udm17858) Units=km Length=0.0195532 bus1=udm17858.1.2 bus2=p1ulv13859.1.2 switch=n enabled=y phases=2 Linecode=1P_OH_AL_2/0_Rucina_0_416_0_2_2
