New Line.l(r:p1ulv27028-udm2866) Units=km Length=0.0159473 bus1=udm2866.1.2 bus2=p1ulv27028.1.2 switch=n enabled=y phases=2 Linecode=1P_UG_AL_2/0_Converse_0_416_0_2_2

New Line.l(r:p1ulv1284-udm2865) Units=km Length=0.0135102 bus1=udm2865.1.2 bus2=p1ulv1284.1.2 switch=n enabled=y phases=2 Linecode=1P_UG_AL_2/0_Converse_0_416_0_2_2

New Line.l(r:udm2865-udm2866) Units=km Length=0.008255160000000001 bus1=udm2866.1.2 bus2=udm2865.1.2 switch=n enabled=y phases=2 Linecode=1P_UG_AL_2/0_Converse_0_416_0_2_2

New Line.l(r:udm2866-udt685lv) Units=km Length=0.00965743 bus1=udt685lv.1.2 bus2=udm2866.1.2 switch=n enabled=y phases=2 Linecode=1P_UG_AL_4/0_Sweetbriar_0_416_0_2_2

New Line.l(r:p1ulv29521-udm2867) Units=km Length=0.0163421 bus1=udm2867.1.2 bus2=p1ulv29521.1.2 switch=n enabled=y phases=2 Linecode=1P_UG_AL_1/0_Brenau_0_416_0_2_2

New Line.l(r:udm2867-udt685lv) Units=km Length=0.0852283 bus1=udt685lv.1.2 bus2=udm2867.1.2 switch=n enabled=y phases=2 Linecode=1P_UG_AL_1/0_Brenau_0_416_0_2_2

New Line.l(r:p1ulv1287-udt687lv) Units=km Length=0.0193338 bus1=udt687lv.1.2 bus2=p1ulv1287.1.2 switch=n enabled=y phases=2 Linecode=1P_OH_AL_2/0_Rucina_0_416_0_2_2

New Line.l(r:p1ulv1286-udm2869) Units=km Length=0.0263895 bus1=udm2869.1.2 bus2=p1ulv1286.1.2 switch=n enabled=y phases=2 Linecode=1P_OH_AL_2/0_Rucina_0_416_0_2_2

New Line.l(r:udm2869-udt687lv) Units=km Length=0.0792037 bus1=udt687lv.1.2 bus2=udm2869.1.2 switch=n enabled=y phases=2 Linecode=1P_OH_AL_4/0_Zuzara_0_416_0_2_2

New Line.l(r:p1ulv3863-udt1811lv) Units=km Length=0.0419438 bus1=udt1811lv.1.2 bus2=p1ulv3863.1.2 switch=n enabled=y phases=2 Linecode=1P_UG_AL_1/0_Brenau_0_416_0_2_2

New Line.l(r:p1ulv3862-udm7133) Units=km Length=0.041503 bus1=udm7133.1.2 bus2=p1ulv3862.1.2 switch=n enabled=y phases=2 Linecode=1P_UG_AL_1/0_Brenau_0_416_0_2_2

New Line.l(r:p1ulv3876-udm7139) Units=km Length=0.0267849 bus1=udm7139.1.2 bus2=p1ulv3876.1.2 switch=n enabled=y phases=2 Linecode=1P_UG_AL_1/0_Brenau_0_416_0_2_2

New Line.l(r:p1ulv3877-udm7139) Units=km Length=0.012214300000000003 bus1=udm7139.1.2 bus2=p1ulv3877.1.2 switch=n enabled=y phases=2 Linecode=1P_UG_AL_1/0_Brenau_0_416_0_2_2

New Line.l(r:p1ulv3878-udm7139) Units=km Length=0.0180125 bus1=udm7139.1.2 bus2=p1ulv3878.1.2 switch=n enabled=y phases=2 Linecode=1P_UG_AL_1/0_Brenau_0_416_0_2_2

New Line.l(r:p1ulv3875-udm7138) Units=km Length=0.0118803 bus1=udm7138.1.2 bus2=p1ulv3875.1.2 switch=n enabled=y phases=2 Linecode=1P_UG_AL_1/0_Brenau_0_416_0_2_2

New Line.l(r:p1ulv3872-udm7137) Units=km Length=0.0135302 bus1=udm7137.1.2 bus2=p1ulv3872.1.2 switch=n enabled=y phases=2 Linecode=1P_UG_AL_1/0_Brenau_0_416_0_2_2

New Line.l(r:udm7137-udm7138) Units=km Length=0.05869680000000001 bus1=udm7138.1.2 bus2=udm7137.1.2 switch=n enabled=y phases=2 Linecode=1P_UG_AL_1/0_Brenau_0_416_0_2_2

New Line.l(r:udm7138-udm7139) Units=km Length=0.00958449 bus1=udm7139.1.2 bus2=udm7138.1.2 switch=n enabled=y phases=2 Linecode=1P_UG_AL_1/0_Brenau_0_416_0_2_2

New Line.l(r:udm7133-udm7139) Units=km Length=0.00958908 bus1=udm7133.1.2 bus2=udm7139.1.2 switch=n enabled=y phases=2 Linecode=1P_UG_AL_4/0_Sweetbriar_0_416_0_2_2

New Line.l(r:udm7133-udt1811lv) Units=km Length=0.00958449 bus1=udt1811lv.1.2 bus2=udm7133.1.2 switch=n enabled=y phases=2 Linecode=1P_UG_AL_4/0_Sweetbriar_0_416_0_2_2

New Line.l(r:p1ulv3864-udm7135) Units=km Length=0.0423852 bus1=udm7135.1.2 bus2=p1ulv3864.1.2 switch=n enabled=y phases=2 Linecode=1P_UG_AL_1/0_Brenau_0_416_0_2_2

New Line.l(r:p1ulv3865-udm7136) Units=km Length=0.0429055 bus1=udm7136.1.2 bus2=p1ulv3865.1.2 switch=n enabled=y phases=2 Linecode=1P_UG_AL_1/0_Brenau_0_416_0_2_2

New Line.l(r:p1ulv3932-udm7142) Units=km Length=0.0278866 bus1=udm7142.1.2 bus2=p1ulv3932.1.2 switch=n enabled=y phases=2 Linecode=1P_UG_AL_1/0_Brenau_0_416_0_2_2

New Line.l(r:p1ulv3933-udm7142) Units=km Length=0.0182614 bus1=udm7142.1.2 bus2=p1ulv3933.1.2 switch=n enabled=y phases=2 Linecode=1P_UG_AL_1/0_Brenau_0_416_0_2_2

New Line.l(r:p1ulv3934-udm7142) Units=km Length=0.0135486 bus1=udm7142.1.2 bus2=p1ulv3934.1.2 switch=n enabled=y phases=2 Linecode=1P_UG_AL_1/0_Brenau_0_416_0_2_2

New Line.l(r:p1ulv3940-udm7142) Units=km Length=0.0176219 bus1=udm7142.1.2 bus2=p1ulv3940.1.2 switch=n enabled=y phases=2 Linecode=1P_UG_AL_1/0_Brenau_0_416_0_2_2

New Line.l(r:udm7136-udm7142) Units=km Length=0.0191647 bus1=udm7136.1.2 bus2=udm7142.1.2 switch=n enabled=y phases=2 Linecode=1P_UG_AL_4/0_Sweetbriar_0_416_0_2_2

New Line.l(r:udm7135-udm7136) Units=km Length=0.00958908 bus1=udm7135.1.2 bus2=udm7136.1.2 switch=n enabled=y phases=2 Linecode=1P_UG_AL_4/0_Sweetbriar_0_416_0_2_2

New Line.l(r:udm7135-udt1811lv) Units=km Length=0.00958449 bus1=udt1811lv.1.2 bus2=udm7135.1.2 switch=n enabled=y phases=2 Linecode=1P_UG_AL_4/0_Sweetbriar_0_416_0_2_2

New Line.l(r:p1ulv3866-udt1812lv) Units=km Length=0.0423764 bus1=udt1812lv.1.2 bus2=p1ulv3866.1.2 switch=n enabled=y phases=2 Linecode=1P_UG_AL_1/0_Brenau_0_416_0_2_2

New Line.l(r:p1ulv3867-udt1812lv) Units=km Length=0.049352 bus1=udt1812lv.1.2 bus2=p1ulv3867.1.2 switch=n enabled=y phases=2 Linecode=1P_UG_AL_1/0_Brenau_0_416_0_2_2

New Line.l(r:p1ulv3871-udt1812lv) Units=km Length=0.0142222 bus1=udt1812lv.1.2 bus2=p1ulv3871.1.2 switch=n enabled=y phases=2 Linecode=1P_UG_AL_1/0_Brenau_0_416_0_2_2

New Line.l(r:p1ulv3884-udt1812lv) Units=km Length=0.014926600000000002 bus1=udt1812lv.1.2 bus2=p1ulv3884.1.2 switch=n enabled=y phases=2 Linecode=1P_UG_AL_1/0_Brenau_0_416_0_2_2

New Line.l(r:p1ulv3870-udm7148) Units=km Length=0.0149217 bus1=udm7148.1.2 bus2=p1ulv3870.1.2 switch=n enabled=y phases=2 Linecode=1P_UG_AL_1/0_Brenau_0_416_0_2_2

New Line.l(r:p1ulv3885-udm7148) Units=km Length=0.0149615 bus1=udm7148.1.2 bus2=p1ulv3885.1.2 switch=n enabled=y phases=2 Linecode=1P_UG_AL_1/0_Brenau_0_416_0_2_2

New Line.l(r:p1ulv3886-udm7153) Units=km Length=0.0149873 bus1=udm7153.1.2 bus2=p1ulv3886.1.2 switch=n enabled=y phases=2 Linecode=1P_UG_AL_1/0_Brenau_0_416_0_2_2

New Line.l(r:udm7148-udm7153) Units=km Length=0.0083489 bus1=udm7148.1.2 bus2=udm7153.1.2 switch=n enabled=y phases=2 Linecode=1P_UG_AL_1/0_Brenau_0_416_0_2_2

New Line.l(r:udm7148-udt1812lv) Units=km Length=0.0083489 bus1=udt1812lv.1.2 bus2=udm7148.1.2 switch=n enabled=y phases=2 Linecode=1P_UG_AL_2/0_Converse_0_416_0_2_2

New Line.l(r:p1ulv3883-udm7150) Units=km Length=0.0148917 bus1=udm7150.1.2 bus2=p1ulv3883.1.2 switch=n enabled=y phases=2 Linecode=1P_UG_AL_1/0_Brenau_0_416_0_2_2

New Line.l(r:udm7150-udt1812lv) Units=km Length=0.00834772 bus1=udt1812lv.1.2 bus2=udm7150.1.2 switch=n enabled=y phases=2 Linecode=1P_UG_AL_1/0_Brenau_0_416_0_2_2

New Line.l(r:p1ulv3880-udt1813lv) Units=km Length=0.019432 bus1=udt1813lv.1.2 bus2=p1ulv3880.1.2 switch=n enabled=y phases=2 Linecode=1P_UG_AL_1/0_Brenau_0_416_0_2_2

New Line.l(r:p1ulv3873-udm7154) Units=km Length=0.012934 bus1=udm7154.1.2 bus2=p1ulv3873.1.2 switch=n enabled=y phases=2 Linecode=1P_UG_AL_1/0_Brenau_0_416_0_2_2

New Line.l(r:p1ulv3879-udm7154) Units=km Length=0.0155334 bus1=udm7154.1.2 bus2=p1ulv3879.1.2 switch=n enabled=y phases=2 Linecode=1P_UG_AL_1/0_Brenau_0_416_0_2_2

New Line.l(r:udm7154-udt1813lv) Units=km Length=0.00709307 bus1=udt1813lv.1.2 bus2=udm7154.1.2 switch=n enabled=y phases=2 Linecode=1P_UG_AL_1/0_Brenau_0_416_0_2_2

New Line.l(r:p1ulv3881-udm7157) Units=km Length=0.0236769 bus1=udm7157.1.2 bus2=p1ulv3881.1.2 switch=n enabled=y phases=2 Linecode=1P_UG_AL_1/0_Brenau_0_416_0_2_2

New Line.l(r:p1ulv3882-udm7158) Units=km Length=0.0275808 bus1=udm7158.1.2 bus2=p1ulv3882.1.2 switch=n enabled=y phases=2 Linecode=1P_UG_AL_1/0_Brenau_0_416_0_2_2

New Line.l(r:udm7157-udm7158) Units=km Length=0.00709307 bus1=udm7157.1.2 bus2=udm7158.1.2 switch=n enabled=y phases=2 Linecode=1P_UG_AL_1/0_Brenau_0_416_0_2_2

New Line.l(r:udm7157-udt1813lv) Units=km Length=0.0070962 bus1=udt1813lv.1.2 bus2=udm7157.1.2 switch=n enabled=y phases=2 Linecode=1P_UG_AL_1/0_Brenau_0_416_0_2_2

New Line.l(r:p1ulv3955-udt1814lv) Units=km Length=0.0446912 bus1=udt1814lv.1.2 bus2=p1ulv3955.1.2 switch=n enabled=y phases=2 Linecode=1P_UG_AL_1/0_Brenau_0_416_0_2_2

New Line.l(r:p1ulv3948-udm7161) Units=km Length=0.0224734 bus1=udm7161.1.2 bus2=p1ulv3948.1.2 switch=n enabled=y phases=2 Linecode=1P_UG_AL_1/0_Brenau_0_416_0_2_2

New Line.l(r:p1ulv3956-udm7161) Units=km Length=0.04454960000000001 bus1=udm7161.1.2 bus2=p1ulv3956.1.2 switch=n enabled=y phases=2 Linecode=1P_UG_AL_1/0_Brenau_0_416_0_2_2

New Line.l(r:p1ulv3947-udm7160) Units=km Length=0.0305848 bus1=udm7160.1.2 bus2=p1ulv3947.1.2 switch=n enabled=y phases=2 Linecode=1P_UG_AL_1/0_Brenau_0_416_0_2_2

New Line.l(r:p1ulv3949-udm7160) Units=km Length=0.016279000000000002 bus1=udm7160.1.2 bus2=p1ulv3949.1.2 switch=n enabled=y phases=2 Linecode=1P_UG_AL_1/0_Brenau_0_416_0_2_2

New Line.l(r:udm7160-udm7161) Units=km Length=0.00958908 bus1=udm7161.1.2 bus2=udm7160.1.2 switch=n enabled=y phases=2 Linecode=1P_UG_AL_1/0_Brenau_0_416_0_2_2

New Line.l(r:udm7161-udt1814lv) Units=km Length=0.00958449 bus1=udt1814lv.1.2 bus2=udm7161.1.2 switch=n enabled=y phases=2 Linecode=1P_UG_AL_2/0_Converse_0_416_0_2_2

New Line.l(r:p1ulv3952-udm7163) Units=km Length=0.031002 bus1=udm7163.1.2 bus2=p1ulv3952.1.2 switch=n enabled=y phases=2 Linecode=1P_UG_AL_1/0_Brenau_0_416_0_2_2

New Line.l(r:p1ulv3953-udm7163) Units=km Length=0.018676 bus1=udm7163.1.2 bus2=p1ulv3953.1.2 switch=n enabled=y phases=2 Linecode=1P_UG_AL_1/0_Brenau_0_416_0_2_2

New Line.l(r:p1ulv3954-udm7163) Units=km Length=0.0216425 bus1=udm7163.1.2 bus2=p1ulv3954.1.2 switch=n enabled=y phases=2 Linecode=1P_UG_AL_1/0_Brenau_0_416_0_2_2

New Line.l(r:p1ulv3874-udm7159) Units=km Length=0.0112446 bus1=udm7159.1.2 bus2=p1ulv3874.1.2 switch=n enabled=y phases=2 Linecode=1P_UG_AL_1/0_Brenau_0_416_0_2_2

New Line.l(r:udm7159-udm7163) Units=km Length=0.00973699 bus1=udm7163.1.2 bus2=udm7159.1.2 switch=n enabled=y phases=2 Linecode=1P_UG_AL_1/0_Brenau_0_416_0_2_2

New Line.l(r:udm7163-udt1814lv) Units=km Length=0.00958449 bus1=udt1814lv.1.2 bus2=udm7163.1.2 switch=n enabled=y phases=2 Linecode=1P_UG_AL_2/0_Converse_0_416_0_2_2

New Line.l(r:p1ulv3890-udt1815lv) Units=km Length=0.014764 bus1=udt1815lv.1.2 bus2=p1ulv3890.1.2 switch=n enabled=y phases=2 Linecode=1P_UG_AL_1/0_Brenau_0_416_0_2_2

New Line.l(r:p1ulv3893-udt1815lv) Units=km Length=0.0153053 bus1=udt1815lv.1.2 bus2=p1ulv3893.1.2 switch=n enabled=y phases=2 Linecode=1P_UG_AL_1/0_Brenau_0_416_0_2_2

New Line.l(r:p1ulv3887-udm7168) Units=km Length=0.020487 bus1=udm7168.1.2 bus2=p1ulv3887.1.2 switch=n enabled=y phases=2 Linecode=1P_UG_AL_1/0_Brenau_0_416_0_2_2

New Line.l(r:p1ulv3888-udm7168) Units=km Length=0.029994400000000004 bus1=udm7168.1.2 bus2=p1ulv3888.1.2 switch=n enabled=y phases=2 Linecode=1P_UG_AL_1/0_Brenau_0_416_0_2_2

New Line.l(r:p1ulv3891-udm7168) Units=km Length=0.0146579 bus1=udm7168.1.2 bus2=p1ulv3891.1.2 switch=n enabled=y phases=2 Linecode=1P_UG_AL_1/0_Brenau_0_416_0_2_2

New Line.l(r:p1ulv3894-udm7168) Units=km Length=0.0157219 bus1=udm7168.1.2 bus2=p1ulv3894.1.2 switch=n enabled=y phases=2 Linecode=1P_UG_AL_1/0_Brenau_0_416_0_2_2

New Line.l(r:p1ulv3895-udm7175) Units=km Length=0.016198 bus1=udm7175.1.2 bus2=p1ulv3895.1.2 switch=n enabled=y phases=2 Linecode=1P_UG_AL_1/0_Brenau_0_416_0_2_2

New Line.l(r:udm7168-udm7175) Units=km Length=0.00976721 bus1=udm7168.1.2 bus2=udm7175.1.2 switch=n enabled=y phases=2 Linecode=1P_UG_AL_1/0_Brenau_0_416_0_2_2

New Line.l(r:udm7168-udt1815lv) Units=km Length=0.00976721 bus1=udt1815lv.1.2 bus2=udm7168.1.2 switch=n enabled=y phases=2 Linecode=1P_UG_AL_4/0_Sweetbriar_0_416_0_2_2

New Line.l(r:p1ulv3892-udm7172) Units=km Length=0.0148572 bus1=udm7172.1.2 bus2=p1ulv3892.1.2 switch=n enabled=y phases=2 Linecode=1P_UG_AL_1/0_Brenau_0_416_0_2_2

New Line.l(r:p1ulv3903-udm7176) Units=km Length=0.0149577 bus1=udm7176.1.2 bus2=p1ulv3903.1.2 switch=n enabled=y phases=2 Linecode=1P_UG_AL_1/0_Brenau_0_416_0_2_2

New Line.l(r:p1ulv3906-udm7176) Units=km Length=0.0132561 bus1=udm7176.1.2 bus2=p1ulv3906.1.2 switch=n enabled=y phases=2 Linecode=1P_UG_AL_1/0_Brenau_0_416_0_2_2

New Line.l(r:p1ulv3910-udm7179) Units=km Length=0.0136547 bus1=udm7179.1.2 bus2=p1ulv3910.1.2 switch=n enabled=y phases=2 Linecode=1P_UG_AL_1/0_Brenau_0_416_0_2_2

New Line.l(r:p1ulv3905-udm7177) Units=km Length=0.017811600000000004 bus1=udm7177.1.2 bus2=p1ulv3905.1.2 switch=n enabled=y phases=2 Linecode=1P_UG_AL_1/0_Brenau_0_416_0_2_2

New Line.l(r:udm7177-udm7179) Units=km Length=0.062323 bus1=udm7179.1.2 bus2=udm7177.1.2 switch=n enabled=y phases=2 Linecode=1P_UG_AL_1/0_Brenau_0_416_0_2_2

New Line.l(r:udm7176-udm7179) Units=km Length=0.00976721 bus1=udm7176.1.2 bus2=udm7179.1.2 switch=n enabled=y phases=2 Linecode=1P_UG_AL_1/0_Brenau_0_416_0_2_2

New Line.l(r:udm7172-udm7176) Units=km Length=0.00976721 bus1=udm7172.1.2 bus2=udm7176.1.2 switch=n enabled=y phases=2 Linecode=1P_UG_AL_4/0_Sweetbriar_0_416_0_2_2

New Line.l(r:udm7172-udt1815lv) Units=km Length=0.00976721 bus1=udt1815lv.1.2 bus2=udm7172.1.2 switch=n enabled=y phases=2 Linecode=1P_UG_AL_4/0_Sweetbriar_0_416_0_2_2

New Line.l(r:p1ulv3898-udt1816lv) Units=km Length=0.0154742 bus1=udt1816lv.1.2 bus2=p1ulv3898.1.2 switch=n enabled=y phases=2 Linecode=1P_UG_AL_1/0_Brenau_0_416_0_2_2

New Line.l(r:p1ulv3901-udt1816lv) Units=km Length=0.014113900000000002 bus1=udt1816lv.1.2 bus2=p1ulv3901.1.2 switch=n enabled=y phases=2 Linecode=1P_UG_AL_1/0_Brenau_0_416_0_2_2

New Line.l(r:p1ulv3897-udm7181) Units=km Length=0.0159327 bus1=udm7181.1.2 bus2=p1ulv3897.1.2 switch=n enabled=y phases=2 Linecode=1P_UG_AL_1/0_Brenau_0_416_0_2_2

New Line.l(r:p1ulv3900-udm7181) Units=km Length=0.0139505 bus1=udm7181.1.2 bus2=p1ulv3900.1.2 switch=n enabled=y phases=2 Linecode=1P_UG_AL_1/0_Brenau_0_416_0_2_2

New Line.l(r:p1ulv3896-udm7180) Units=km Length=0.0163488 bus1=udm7180.1.2 bus2=p1ulv3896.1.2 switch=n enabled=y phases=2 Linecode=1P_UG_AL_1/0_Brenau_0_416_0_2_2

New Line.l(r:udm7180-udm7181) Units=km Length=0.00877716 bus1=udm7181.1.2 bus2=udm7180.1.2 switch=n enabled=y phases=2 Linecode=1P_UG_AL_1/0_Brenau_0_416_0_2_2

New Line.l(r:udm7181-udt1816lv) Units=km Length=0.00878713 bus1=udt1816lv.1.2 bus2=udm7181.1.2 switch=n enabled=y phases=2 Linecode=1P_UG_AL_2/0_Converse_0_416_0_2_2

New Line.l(r:p1ulv3899-udm7183) Units=km Length=0.0151171 bus1=udm7183.1.2 bus2=p1ulv3899.1.2 switch=n enabled=y phases=2 Linecode=1P_UG_AL_1/0_Brenau_0_416_0_2_2

New Line.l(r:p1ulv3902-udm7183) Units=km Length=0.0141674 bus1=udm7183.1.2 bus2=p1ulv3902.1.2 switch=n enabled=y phases=2 Linecode=1P_UG_AL_1/0_Brenau_0_416_0_2_2

New Line.l(r:udm7183-udt1816lv) Units=km Length=0.00878713 bus1=udt1816lv.1.2 bus2=udm7183.1.2 switch=n enabled=y phases=2 Linecode=1P_UG_AL_1/0_Brenau_0_416_0_2_2

New Line.l(r:p1ulv3909-udm7189) Units=km Length=0.0161166 bus1=udm7189.1.2 bus2=p1ulv3909.1.2 switch=n enabled=y phases=2 Linecode=1P_UG_AL_1/0_Brenau_0_416_0_2_2

New Line.l(r:p1ulv3914-udm7189) Units=km Length=0.0385856 bus1=udm7189.1.2 bus2=p1ulv3914.1.2 switch=n enabled=y phases=2 Linecode=1P_UG_AL_1/0_Brenau_0_416_0_2_2

New Line.l(r:p1ulv3907-udm7187) Units=km Length=0.0167253 bus1=udm7187.1.2 bus2=p1ulv3907.1.2 switch=n enabled=y phases=2 Linecode=1P_UG_AL_1/0_Brenau_0_416_0_2_2

New Line.l(r:p1ulv3913-udm7187) Units=km Length=0.038402200000000004 bus1=udm7187.1.2 bus2=p1ulv3913.1.2 switch=n enabled=y phases=2 Linecode=1P_UG_AL_1/0_Brenau_0_416_0_2_2

New Line.l(r:p1ulv3908-udm7188) Units=km Length=0.0173051 bus1=udm7188.1.2 bus2=p1ulv3908.1.2 switch=n enabled=y phases=2 Linecode=1P_UG_AL_1/0_Brenau_0_416_0_2_2

New Line.l(r:p1ulv3912-udm7188) Units=km Length=0.0213061 bus1=udm7188.1.2 bus2=p1ulv3912.1.2 switch=n enabled=y phases=2 Linecode=1P_UG_AL_1/0_Brenau_0_416_0_2_2

New Line.l(r:p1ulv3911-udm7190) Units=km Length=0.0314532 bus1=udm7190.1.2 bus2=p1ulv3911.1.2 switch=n enabled=y phases=2 Linecode=1P_UG_AL_1/0_Brenau_0_416_0_2_2

New Line.l(r:udm7188-udm7190) Units=km Length=0.00835393 bus1=udm7188.1.2 bus2=udm7190.1.2 switch=n enabled=y phases=2 Linecode=1P_UG_AL_1/0_Brenau_0_416_0_2_2

New Line.l(r:udm7187-udm7188) Units=km Length=0.00834904 bus1=udm7187.1.2 bus2=udm7188.1.2 switch=n enabled=y phases=2 Linecode=1P_UG_AL_2/0_Converse_0_416_0_2_2

New Line.l(r:udm7187-udm7189) Units=km Length=0.00835393 bus1=udm7189.1.2 bus2=udm7187.1.2 switch=n enabled=y phases=2 Linecode=1P_UG_AL_4/0_Sweetbriar_0_416_0_2_2

New Line.l(r:udm7189-udt1817lv) Units=km Length=0.00835393 bus1=udt1817lv.1.2 bus2=udm7189.1.2 switch=n enabled=y phases=2 Linecode=1P_UG_AL_4/0_Sweetbriar_0_416_0_2_2

New Line.l(r:p1ulv3915-udm7194) Units=km Length=0.03193 bus1=udm7194.1.2 bus2=p1ulv3915.1.2 switch=n enabled=y phases=2 Linecode=1P_UG_AL_1/0_Brenau_0_416_0_2_2

New Line.l(r:p1ulv3916-udm7194) Units=km Length=0.0237114 bus1=udm7194.1.2 bus2=p1ulv3916.1.2 switch=n enabled=y phases=2 Linecode=1P_UG_AL_1/0_Brenau_0_416_0_2_2

New Line.l(r:p1ulv3917-udm7196) Units=km Length=0.014164 bus1=udm7196.1.2 bus2=p1ulv3917.1.2 switch=n enabled=y phases=2 Linecode=1P_UG_AL_1/0_Brenau_0_416_0_2_2

New Line.l(r:p1ulv3919-udm7196) Units=km Length=0.0130139 bus1=udm7196.1.2 bus2=p1ulv3919.1.2 switch=n enabled=y phases=2 Linecode=1P_UG_AL_1/0_Brenau_0_416_0_2_2

New Line.l(r:p1ulv3918-udm7197) Units=km Length=0.0166932 bus1=udm7197.1.2 bus2=p1ulv3918.1.2 switch=n enabled=y phases=2 Linecode=1P_UG_AL_1/0_Brenau_0_416_0_2_2

New Line.l(r:udm7196-udm7197) Units=km Length=0.00859116 bus1=udm7196.1.2 bus2=udm7197.1.2 switch=n enabled=y phases=2 Linecode=1P_UG_AL_1/0_Brenau_0_416_0_2_2

New Line.l(r:udm7194-udm7196) Units=km Length=0.015847 bus1=udm7194.1.2 bus2=udm7196.1.2 switch=n enabled=y phases=2 Linecode=1P_UG_AL_2/0_Converse_0_416_0_2_2

New Line.l(r:udm7194-udt1817lv) Units=km Length=0.00834485 bus1=udt1817lv.1.2 bus2=udm7194.1.2 switch=n enabled=y phases=2 Linecode=1P_UG_AL_4/0_Sweetbriar_0_416_0_2_2

New Line.l(r:p1ulv3930-udm7199) Units=km Length=0.0130528 bus1=udm7199.1.2 bus2=p1ulv3930.1.2 switch=n enabled=y phases=2 Linecode=1P_UG_AL_1/0_Brenau_0_416_0_2_2

New Line.l(r:p1ulv3938-udm7199) Units=km Length=0.0180184 bus1=udm7199.1.2 bus2=p1ulv3938.1.2 switch=n enabled=y phases=2 Linecode=1P_UG_AL_1/0_Brenau_0_416_0_2_2

New Line.l(r:p1ulv3939-udm7199) Units=km Length=0.017933 bus1=udm7199.1.2 bus2=p1ulv3939.1.2 switch=n enabled=y phases=2 Linecode=1P_UG_AL_1/0_Brenau_0_416_0_2_2

New Line.l(r:udm7199-udt1818lv) Units=km Length=0.019173600000000002 bus1=udt1818lv.1.2 bus2=udm7199.1.2 switch=n enabled=y phases=2 Linecode=1P_UG_AL_1/0_Brenau_0_416_0_2_2

New Line.l(r:p1ulv3942-udm7204) Units=km Length=0.0177745 bus1=udm7204.1.2 bus2=p1ulv3942.1.2 switch=n enabled=y phases=2 Linecode=1P_UG_AL_1/0_Brenau_0_416_0_2_2

New Line.l(r:p1ulv3943-udm7205) Units=km Length=0.0121363 bus1=udm7205.1.2 bus2=p1ulv3943.1.2 switch=n enabled=y phases=2 Linecode=1P_UG_AL_1/0_Brenau_0_416_0_2_2

New Line.l(r:p1ulv3935-udm7200) Units=km Length=0.0127701 bus1=udm7200.1.2 bus2=p1ulv3935.1.2 switch=n enabled=y phases=2 Linecode=1P_UG_AL_1/0_Brenau_0_416_0_2_2

New Line.l(r:p1ulv3937-udm7201) Units=km Length=0.0131002 bus1=udm7201.1.2 bus2=p1ulv3937.1.2 switch=n enabled=y phases=2 Linecode=1P_UG_AL_1/0_Brenau_0_416_0_2_2

New Line.l(r:udm7200-udm7201) Units=km Length=0.00927992 bus1=udm7200.1.2 bus2=udm7201.1.2 switch=n enabled=y phases=2 Linecode=1P_UG_AL_1/0_Brenau_0_416_0_2_2

New Line.l(r:udm7200-udm7205) Units=km Length=0.009288900000000001 bus1=udm7205.1.2 bus2=udm7200.1.2 switch=n enabled=y phases=2 Linecode=1P_UG_AL_1/0_Brenau_0_416_0_2_2

New Line.l(r:udm7204-udm7205) Units=km Length=0.00928434 bus1=udm7204.1.2 bus2=udm7205.1.2 switch=n enabled=y phases=2 Linecode=1P_UG_AL_4/0_Sweetbriar_0_416_0_2_2

New Line.l(r:udm7204-udt1818lv) Units=km Length=0.0377378 bus1=udt1818lv.1.2 bus2=udm7204.1.2 switch=n enabled=y phases=2 Linecode=1P_UG_AL_4/0_Sweetbriar_0_416_0_2_2

New Line.l(r:p1ulv3944-udt1819lv) Units=km Length=0.0465545 bus1=udt1819lv.1.2 bus2=p1ulv3944.1.2 switch=n enabled=y phases=2 Linecode=1P_UG_AL_1/0_Brenau_0_416_0_2_2

New Line.l(r:p1ulv3946-udt1819lv) Units=km Length=0.0302854 bus1=udt1819lv.1.2 bus2=p1ulv3946.1.2 switch=n enabled=y phases=2 Linecode=1P_UG_AL_1/0_Brenau_0_416_0_2_2

New Line.l(r:p1ulv3951-udt1819lv) Units=km Length=0.0217479 bus1=udt1819lv.1.2 bus2=p1ulv3951.1.2 switch=n enabled=y phases=2 Linecode=1P_UG_AL_1/0_Brenau_0_416_0_2_2

New Line.l(r:p1ulv3964-udt1819lv) Units=km Length=0.065877 bus1=udt1819lv.1.2 bus2=p1ulv3964.1.2 switch=n enabled=y phases=2 Linecode=1P_UG_AL_1/0_Brenau_0_416_0_2_2

New Line.l(r:p1ulv3945-udm7208) Units=km Length=0.0468949 bus1=udm7208.1.2 bus2=p1ulv3945.1.2 switch=n enabled=y phases=2 Linecode=1P_UG_AL_1/0_Brenau_0_416_0_2_2

New Line.l(r:p1ulv3941-udm7206) Units=km Length=0.0322041 bus1=udm7206.1.2 bus2=p1ulv3941.1.2 switch=n enabled=y phases=2 Linecode=1P_UG_AL_1/0_Brenau_0_416_0_2_2

New Line.l(r:udm7206-udm7208) Units=km Length=0.00958449 bus1=udm7208.1.2 bus2=udm7206.1.2 switch=n enabled=y phases=2 Linecode=1P_UG_AL_1/0_Brenau_0_416_0_2_2

New Line.l(r:udm7208-udt1819lv) Units=km Length=0.00958908 bus1=udt1819lv.1.2 bus2=udm7208.1.2 switch=n enabled=y phases=2 Linecode=1P_UG_AL_1/0_Brenau_0_416_0_2_2

New Line.l(r:p1ulv3950-udm7210) Units=km Length=0.0159822 bus1=udm7210.1.2 bus2=p1ulv3950.1.2 switch=n enabled=y phases=2 Linecode=1P_UG_AL_1/0_Brenau_0_416_0_2_2

New Line.l(r:p1ulv3963-udm7210) Units=km Length=0.0647051 bus1=udm7210.1.2 bus2=p1ulv3963.1.2 switch=n enabled=y phases=2 Linecode=1P_UG_AL_1/0_Brenau_0_416_0_2_2

New Line.l(r:udm7210-udt1819lv) Units=km Length=0.00958449 bus1=udt1819lv.1.2 bus2=udm7210.1.2 switch=n enabled=y phases=2 Linecode=1P_UG_AL_1/0_Brenau_0_416_0_2_2

New Line.l(r:p1ulv3959-udm7216) Units=km Length=0.06148340000000001 bus1=udm7216.1.2 bus2=p1ulv3959.1.2 switch=n enabled=y phases=2 Linecode=1P_UG_AL_1/0_Brenau_0_416_0_2_2

New Line.l(r:p1ulv3960-udm7216) Units=km Length=0.0405871 bus1=udm7216.1.2 bus2=p1ulv3960.1.2 switch=n enabled=y phases=2 Linecode=1P_UG_AL_1/0_Brenau_0_416_0_2_2

New Line.l(r:p1ulv3961-udm7216) Units=km Length=0.0457286 bus1=udm7216.1.2 bus2=p1ulv3961.1.2 switch=n enabled=y phases=2 Linecode=1P_UG_AL_1/0_Brenau_0_416_0_2_2

New Line.l(r:p1ulv3962-udm7216) Units=km Length=0.0550298 bus1=udm7216.1.2 bus2=p1ulv3962.1.2 switch=n enabled=y phases=2 Linecode=1P_UG_AL_1/0_Brenau_0_416_0_2_2

New Line.l(r:p1ulv3957-udm7214) Units=km Length=0.0277862 bus1=udm7214.1.2 bus2=p1ulv3957.1.2 switch=n enabled=y phases=2 Linecode=1P_UG_AL_1/0_Brenau_0_416_0_2_2

New Line.l(r:p1ulv3958-udm7214) Units=km Length=0.0185007 bus1=udm7214.1.2 bus2=p1ulv3958.1.2 switch=n enabled=y phases=2 Linecode=1P_UG_AL_1/0_Brenau_0_416_0_2_2

New Line.l(r:udm7214-udm7216) Units=km Length=0.0199305 bus1=udm7216.1.2 bus2=udm7214.1.2 switch=n enabled=y phases=2 Linecode=1P_UG_AL_1/0_Brenau_0_416_0_2_2

New Line.l(r:udm7216-udt1820lv) Units=km Length=0.0099582 bus1=udt1820lv.1.2 bus2=udm7216.1.2 switch=n enabled=y phases=2 Linecode=1P_UG_AL_4/0_Sweetbriar_0_416_0_2_2

New Line.l(r:p1ulv31992-udm7221) Units=km Length=0.0150845 bus1=udm7221.1.2 bus2=p1ulv31992.1.2 switch=n enabled=y phases=2 Linecode=1P_UG_AL_1/0_Brenau_0_416_0_2_2

New Line.l(r:p1ulv28778-udm7220) Units=km Length=0.0154183 bus1=udm7220.1.2 bus2=p1ulv28778.1.2 switch=n enabled=y phases=2 Linecode=1P_UG_AL_1/0_Brenau_0_416_0_2_2

New Line.l(r:udm7220-udm7221) Units=km Length=0.00970484 bus1=udm7221.1.2 bus2=udm7220.1.2 switch=n enabled=y phases=2 Linecode=1P_UG_AL_1/0_Brenau_0_416_0_2_2

New Line.l(r:udm7221-udt1820lv) Units=km Length=0.0299322 bus1=udt1820lv.1.2 bus2=udm7221.1.2 switch=n enabled=y phases=2 Linecode=1P_UG_AL_1/0_Brenau_0_416_0_2_2

New Line.l(r:p1ulv3971-udt1821lv) Units=km Length=0.0139994 bus1=udt1821lv.1.2 bus2=p1ulv3971.1.2 switch=n enabled=y phases=2 Linecode=1P_UG_AL_1/0_Brenau_0_416_0_2_2

New Line.l(r:p1ulv3975-udt1821lv) Units=km Length=0.0415915 bus1=udt1821lv.1.2 bus2=p1ulv3975.1.2 switch=n enabled=y phases=2 Linecode=1P_UG_AL_1/0_Brenau_0_416_0_2_2

New Line.l(r:p1ulv3972-udm7229) Units=km Length=0.014416100000000001 bus1=udm7229.1.2 bus2=p1ulv3972.1.2 switch=n enabled=y phases=2 Linecode=1P_UG_AL_1/0_Brenau_0_416_0_2_2

New Line.l(r:p1ulv3987-udm7234) Units=km Length=0.0135171 bus1=udm7234.1.2 bus2=p1ulv3987.1.2 switch=n enabled=y phases=2 Linecode=1P_OH_AL_2/0_Rucina_0_416_0_2_2

New Line.l(r:p1ulv3984-udm7232) Units=km Length=0.0122189 bus1=udm7232.1.2 bus2=p1ulv3984.1.2 switch=n enabled=y phases=2 Linecode=1P_OH_AL_2/0_Rucina_0_416_0_2_2

New Line.l(r:p1ulv3986-udm7232) Units=km Length=0.0112075 bus1=udm7232.1.2 bus2=p1ulv3986.1.2 switch=n enabled=y phases=2 Linecode=1P_OH_AL_2/0_Rucina_0_416_0_2_2

New Line.l(r:udm7232-udm7234) Units=km Length=0.0210201 bus1=udm7234.1.2 bus2=udm7232.1.2 switch=n enabled=y phases=2 Linecode=1P_OH_AL_2/0_Rucina_0_416_0_2_2

New Line.l(r:udm7229-udm7234) Units=km Length=0.0176519 bus1=udm7229.1.2 bus2=udm7234.1.2 switch=n enabled=y phases=2 Linecode=1P_OH_AL_2/0_Rucina_0_416_0_2_2

New Line.l(r:udm7229-udt1821lv) Units=km Length=0.00882118 bus1=udt1821lv.1.2 bus2=udm7229.1.2 switch=n enabled=y phases=2 Linecode=1P_UG_AL_2/0_Converse_0_416_0_2_2

New Line.l(r:p1ulv3974-udm7230) Units=km Length=0.0445829 bus1=udm7230.1.2 bus2=p1ulv3974.1.2 switch=n enabled=y phases=2 Linecode=1P_UG_AL_1/0_Brenau_0_416_0_2_2

New Line.l(r:p1ulv3969-udm7226) Units=km Length=0.0146356 bus1=udm7226.1.2 bus2=p1ulv3969.1.2 switch=n enabled=y phases=2 Linecode=1P_UG_AL_1/0_Brenau_0_416_0_2_2

New Line.l(r:p1ulv3970-udm7226) Units=km Length=0.0150014 bus1=udm7226.1.2 bus2=p1ulv3970.1.2 switch=n enabled=y phases=2 Linecode=1P_UG_AL_1/0_Brenau_0_416_0_2_2

New Line.l(r:p1ulv3965-udm7222) Units=km Length=0.06502870000000001 bus1=udm7222.1.2 bus2=p1ulv3965.1.2 switch=n enabled=y phases=2 Linecode=1P_UG_AL_1/0_Brenau_0_416_0_2_2

New Line.l(r:p1ulv3966-udm7222) Units=km Length=0.05790290000000001 bus1=udm7222.1.2 bus2=p1ulv3966.1.2 switch=n enabled=y phases=2 Linecode=1P_UG_AL_1/0_Brenau_0_416_0_2_2

New Line.l(r:p1ulv3968-udm7222) Units=km Length=0.014109700000000001 bus1=udm7222.1.2 bus2=p1ulv3968.1.2 switch=n enabled=y phases=2 Linecode=1P_UG_AL_1/0_Brenau_0_416_0_2_2

New Line.l(r:p1ulv3967-udm7224) Units=km Length=0.0135008 bus1=udm7224.1.2 bus2=p1ulv3967.1.2 switch=n enabled=y phases=2 Linecode=1P_UG_AL_1/0_Brenau_0_416_0_2_2

New Line.l(r:udm7222-udm7224) Units=km Length=0.00927992 bus1=udm7222.1.2 bus2=udm7224.1.2 switch=n enabled=y phases=2 Linecode=1P_UG_AL_1/0_Brenau_0_416_0_2_2

New Line.l(r:udm7222-udm7226) Units=km Length=0.00927992 bus1=udm7226.1.2 bus2=udm7222.1.2 switch=n enabled=y phases=2 Linecode=1P_UG_AL_2/0_Converse_0_416_0_2_2

New Line.l(r:udm7226-udm7230) Units=km Length=0.008370540000000001 bus1=udm7230.1.2 bus2=udm7226.1.2 switch=n enabled=y phases=2 Linecode=1P_UG_AL_4/0_Sweetbriar_0_416_0_2_2

New Line.l(r:udm7230-udt1821lv) Units=km Length=0.00837967 bus1=udt1821lv.1.2 bus2=udm7230.1.2 switch=n enabled=y phases=2 Linecode=1P_UG_AL_4/0_Sweetbriar_0_416_0_2_2

New Line.l(r:p1ulv3973-udt1822lv) Units=km Length=0.0402563 bus1=udt1822lv.1.2 bus2=p1ulv3973.1.2 switch=n enabled=y phases=2 Linecode=1P_UG_AL_1/0_Brenau_0_416_0_2_2

New Line.l(r:p1ulv3976-udt1822lv) Units=km Length=0.0472824 bus1=udt1822lv.1.2 bus2=p1ulv3976.1.2 switch=n enabled=y phases=2 Linecode=1P_UG_AL_1/0_Brenau_0_416_0_2_2

New Line.l(r:p1ulv3981-udt1822lv) Units=km Length=0.0135398 bus1=udt1822lv.1.2 bus2=p1ulv3981.1.2 switch=n enabled=y phases=2 Linecode=1P_UG_AL_1/0_Brenau_0_416_0_2_2

New Line.l(r:p1ulv3977-udm7237) Units=km Length=0.0132254 bus1=udm7237.1.2 bus2=p1ulv3977.1.2 switch=n enabled=y phases=2 Linecode=1P_UG_AL_1/0_Brenau_0_416_0_2_2

New Line.l(r:udm7237-udt1822lv) Units=km Length=0.0099647 bus1=udt1822lv.1.2 bus2=udm7237.1.2 switch=n enabled=y phases=2 Linecode=1P_UG_AL_1/0_Brenau_0_416_0_2_2

New Line.l(r:p1ulv3979-udm7238) Units=km Length=0.0283574 bus1=udm7238.1.2 bus2=p1ulv3979.1.2 switch=n enabled=y phases=2 Linecode=1P_UG_AL_1/0_Brenau_0_416_0_2_2

New Line.l(r:p1ulv3980-udm7238) Units=km Length=0.0191588 bus1=udm7238.1.2 bus2=p1ulv3980.1.2 switch=n enabled=y phases=2 Linecode=1P_UG_AL_1/0_Brenau_0_416_0_2_2

New Line.l(r:udm7238-udt1822lv) Units=km Length=0.009965810000000002 bus1=udt1822lv.1.2 bus2=udm7238.1.2 switch=n enabled=y phases=2 Linecode=1P_UG_AL_1/0_Brenau_0_416_0_2_2

New Line.l(r:p1ulv3982-udt1823lv) Units=km Length=0.0133203 bus1=udt1823lv.1.2 bus2=p1ulv3982.1.2 switch=n enabled=y phases=2 Linecode=1P_UG_AL_1/0_Brenau_0_416_0_2_2

New Line.l(r:p1ulv3983-udt1823lv) Units=km Length=0.0128577 bus1=udt1823lv.1.2 bus2=p1ulv3983.1.2 switch=n enabled=y phases=2 Linecode=1P_UG_AL_1/0_Brenau_0_416_0_2_2

New Line.l(r:p1ulv3985-udm7243) Units=km Length=0.0121195 bus1=udm7243.1.2 bus2=p1ulv3985.1.2 switch=n enabled=y phases=2 Linecode=1P_UG_AL_1/0_Brenau_0_416_0_2_2

New Line.l(r:udm7243-udt1823lv) Units=km Length=0.009965810000000002 bus1=udt1823lv.1.2 bus2=udm7243.1.2 switch=n enabled=y phases=2 Linecode=1P_UG_AL_1/0_Brenau_0_416_0_2_2

New Line.l(r:p1ulv37683-udt1932lv) Units=km Length=0.0149485 bus1=udt1932lv.1.2 bus2=p1ulv37683.1.2 switch=n enabled=y phases=2 Linecode=1P_UG_AL_1/0_Brenau_0_416_0_2_2

New Line.l(r:p1ulv4339-udm7743) Units=km Length=0.0190002 bus1=udm7743.1.2 bus2=p1ulv4339.1.2 switch=n enabled=y phases=2 Linecode=1P_UG_AL_1/0_Brenau_0_416_0_2_2

New Line.l(r:udm7743-udt1932lv) Units=km Length=0.0304467 bus1=udt1932lv.1.2 bus2=udm7743.1.2 switch=n enabled=y phases=2 Linecode=1P_UG_AL_1/0_Brenau_0_416_0_2_2

New Line.l(r:p1ulv36106-udm7744) Units=km Length=0.0388896 bus1=udm7744.1.2 bus2=p1ulv36106.1.2 switch=n enabled=y phases=2 Linecode=1P_OH_AL_4/0_Zuzara_0_416_0_2_2

New Line.l(r:udm7744-udt1932lv) Units=km Length=0.0183194 bus1=udt1932lv.1.2 bus2=udm7744.1.2 switch=n enabled=y phases=2 Linecode=1P_OH_AL_2/0_Rucina_0_416_0_2_2

New Line.l(r:p1ulv4340-udt1933lv) Units=km Length=0.0179492 bus1=udt1933lv.1.2 bus2=p1ulv4340.1.2 switch=n enabled=y phases=2 Linecode=1P_OH_AL_2/0_Rucina_0_416_0_2_2
