New Load.load_p1ulv1283 conn=wye bus1=p1ulv1283.1.2.3 kV=0.48 Vminpu=0.8 Vmaxpu=1.2 model=1 kW=38.220400000000005 kvar=7.7609832328958985 Phases=3

New Load.load_p1ulv1284 conn=wye bus1=p1ulv1284.1.2 kV=0.2080002494301389 Vminpu=0.8 Vmaxpu=1.2 model=1 kW=11.71 kvar=0.8592808470538134 Phases=2

New Load.load_p1ulv1285 conn=wye bus1=p1ulv1285.1.2.3 kV=0.48 Vminpu=0.8 Vmaxpu=1.2 model=1 kW=43.3604 kvar=8.804704748554679 Phases=3

New Load.load_p1ulv1286 conn=wye bus1=p1ulv1286.1.2 kV=0.2080002494301389 Vminpu=0.8 Vmaxpu=1.2 model=1 kW=8.76009 kvar=1.7788121424333347 Phases=2

New Load.load_p1ulv1287 conn=wye bus1=p1ulv1287.1.2 kV=0.2080002494301389 Vminpu=0.8 Vmaxpu=1.2 model=1 kW=14.1601 kvar=2.882731669488496 Phases=2

New Load.load_p1ulv2798 conn=wye bus1=p1ulv2798.1.2.3 kV=0.48 Vminpu=0.8 Vmaxpu=1.2 model=1 kW=31.110299999999995 kvar=6.3172158499220625 Phases=3

New Load.load_p1ulv3862 conn=wye bus1=p1ulv3862.1.2 kV=0.2080002494301389 Vminpu=0.8 Vmaxpu=1.2 model=1 kW=2.58003 kvar=0.5198336154266855 Phases=2

New Load.load_p1ulv3863 conn=wye bus1=p1ulv3863.1.2 kV=0.2080002494301389 Vminpu=0.8 Vmaxpu=1.2 model=1 kW=9.82 kvar=0.46988484668642644 Phases=2

New Load.load_p1ulv3864 conn=wye bus1=p1ulv3864.1.2 kV=0.2080002494301389 Vminpu=0.8 Vmaxpu=1.2 model=1 kW=9.92 kvar=0.49013832927219847 Phases=2

New Load.load_p1ulv3865 conn=wye bus1=p1ulv3865.1.2 kV=0.2080002494301389 Vminpu=0.8 Vmaxpu=1.2 model=1 kW=9.8 kvar=0.46944046466083733 Phases=2

New Load.load_p1ulv3866 conn=wye bus1=p1ulv3866.1.2 kV=0.2080002494301389 Vminpu=0.8 Vmaxpu=1.2 model=1 kW=3.0700300000000005 kvar=0.620176126836135 Phases=2

New Load.load_p1ulv3867 conn=wye bus1=p1ulv3867.1.2 kV=0.2080002494301389 Vminpu=0.8 Vmaxpu=1.2 model=1 kW=2.70003 kvar=0.5496756371472675 Phases=2

New Load.load_p1ulv3870 conn=wye bus1=p1ulv3870.1.2 kV=0.2080002494301389 Vminpu=0.8 Vmaxpu=1.2 model=1 kW=17.59 kvar=0.5204823255727896 Phases=2

New Load.load_p1ulv3871 conn=wye bus1=p1ulv3871.1.2 kV=0.2080002494301389 Vminpu=0.8 Vmaxpu=1.2 model=1 kW=2.50002 kvar=0.510261019669997 Phases=2

New Load.load_p1ulv3872 conn=wye bus1=p1ulv3872.1.2 kV=0.2080002494301389 Vminpu=0.8 Vmaxpu=1.2 model=1 kW=2.33002 kvar=0.469460711936096 Phases=2

New Load.load_p1ulv3873 conn=wye bus1=p1ulv3873.1.2 kV=0.2080002494301389 Vminpu=0.8 Vmaxpu=1.2 model=1 kW=1.56002 kvar=0.32002595041741205 Phases=2

New Load.load_p1ulv3874 conn=wye bus1=p1ulv3874.1.2 kV=0.2080002494301389 Vminpu=0.8 Vmaxpu=1.2 model=1 kW=3.11003 kvar=0.6298893844622836 Phases=2

New Load.load_p1ulv3875 conn=wye bus1=p1ulv3875.1.2 kV=0.2080002494301389 Vminpu=0.8 Vmaxpu=1.2 model=1 kW=3.04003 kvar=0.6204785592224786 Phases=2

New Load.load_p1ulv3876 conn=wye bus1=p1ulv3876.1.2 kV=0.2080002494301389 Vminpu=0.8 Vmaxpu=1.2 model=1 kW=9.75 kvar=0.46040600660272657 Phases=2

New Load.load_p1ulv3877 conn=wye bus1=p1ulv3877.1.2 kV=0.2080002494301389 Vminpu=0.8 Vmaxpu=1.2 model=1 kW=10 kvar=0.510261019669997 Phases=2

New Load.load_p1ulv3878 conn=wye bus1=p1ulv3878.1.2 kV=0.2080002494301389 Vminpu=0.8 Vmaxpu=1.2 model=1 kW=10.29 kvar=0.569452865461029 Phases=2

New Load.load_p1ulv3879 conn=wye bus1=p1ulv3879.1.2 kV=0.2080002494301389 Vminpu=0.8 Vmaxpu=1.2 model=1 kW=2.54003 kvar=0.5197487439894416 Phases=2

New Load.load_p1ulv3880 conn=wye bus1=p1ulv3880.1.2 kV=0.2080002494301389 Vminpu=0.8 Vmaxpu=1.2 model=1 kW=10.27 kvar=0.5595731887375364 Phases=2

New Load.load_p1ulv3881 conn=wye bus1=p1ulv3881.1.2 kV=0.2080002494301389 Vminpu=0.8 Vmaxpu=1.2 model=1 kW=10.05 kvar=0.5204681994500374 Phases=2

New Load.load_p1ulv3882 conn=wye bus1=p1ulv3882.1.2 kV=0.2080002494301389 Vminpu=0.8 Vmaxpu=1.2 model=1 kW=10.46 kvar=0.5995091605836256 Phases=2

New Load.load_p1ulv3883 conn=wye bus1=p1ulv3883.1.2 kV=0.2080002494301389 Vminpu=0.8 Vmaxpu=1.2 model=1 kW=2.99003 kvar=0.6102734204701886 Phases=2

New Load.load_p1ulv3884 conn=wye bus1=p1ulv3884.1.2 kV=0.2080002494301389 Vminpu=0.8 Vmaxpu=1.2 model=1 kW=10.79 kvar=0.6697886084538411 Phases=2

New Load.load_p1ulv3885 conn=wye bus1=p1ulv3885.1.2 kV=0.2080002494301389 Vminpu=0.8 Vmaxpu=1.2 model=1 kW=18.18 kvar=0.6507075106785133 Phases=2

New Load.load_p1ulv3886 conn=wye bus1=p1ulv3886.1.2 kV=0.2080002494301389 Vminpu=0.8 Vmaxpu=1.2 model=1 kW=10.78 kvar=0.6694632252334703 Phases=2

New Load.load_p1ulv3887 conn=wye bus1=p1ulv3887.1.2 kV=0.2080002494301389 Vminpu=0.8 Vmaxpu=1.2 model=1 kW=10.31 kvar=0.570600928141371 Phases=2

New Load.load_p1ulv3888 conn=wye bus1=p1ulv3888.1.2 kV=0.2080002494301389 Vminpu=0.8 Vmaxpu=1.2 model=1 kW=2.36002 kvar=0.4804559568524403 Phases=2

New Load.load_p1ulv3890 conn=wye bus1=p1ulv3890.1.2 kV=0.2080002494301389 Vminpu=0.8 Vmaxpu=1.2 model=1 kW=10.08 kvar=0.5198336154266855 Phases=2

New Load.load_p1ulv3891 conn=wye bus1=p1ulv3891.1.2 kV=0.2080002494301389 Vminpu=0.8 Vmaxpu=1.2 model=1 kW=2.30002 kvar=0.46944046466083733 Phases=2

New Load.load_p1ulv3892 conn=wye bus1=p1ulv3892.1.2 kV=0.2080002494301389 Vminpu=0.8 Vmaxpu=1.2 model=1 kW=2.34002 kvar=0.48003687420401825 Phases=2

New Load.load_p1ulv3893 conn=wye bus1=p1ulv3893.1.2 kV=0.2080002494301389 Vminpu=0.8 Vmaxpu=1.2 model=1 kW=10.26 kvar=0.5604479951096709 Phases=2

New Load.load_p1ulv3894 conn=wye bus1=p1ulv3894.1.2 kV=0.2080002494301389 Vminpu=0.8 Vmaxpu=1.2 model=1 kW=10.11 kvar=0.5299891960145702 Phases=2

New Load.load_p1ulv3895 conn=wye bus1=p1ulv3895.1.2 kV=0.2080002494301389 Vminpu=0.8 Vmaxpu=1.2 model=1 kW=10.21 kvar=0.5502950620779706 Phases=2

New Load.load_p1ulv3896 conn=wye bus1=p1ulv3896.1.2 kV=0.2080002494301389 Vminpu=0.8 Vmaxpu=1.2 model=1 kW=10.56 kvar=0.6197626431693976 Phases=2

New Load.load_p1ulv3897 conn=wye bus1=p1ulv3897.1.2 kV=0.2080002494301389 Vminpu=0.8 Vmaxpu=1.2 model=1 kW=10.14 kvar=0.5402110512846091 Phases=2

New Load.load_p1ulv3898 conn=wye bus1=p1ulv3898.1.2 kV=0.2080002494301389 Vminpu=0.8 Vmaxpu=1.2 model=1 kW=10.11 kvar=0.5299891960145702 Phases=2

New Load.load_p1ulv3899 conn=wye bus1=p1ulv3899.1.2 kV=0.2080002494301389 Vminpu=0.8 Vmaxpu=1.2 model=1 kW=2.89003 kvar=0.5898631429656088 Phases=2

New Load.load_p1ulv3900 conn=wye bus1=p1ulv3900.1.2 kV=0.2080002494301389 Vminpu=0.8 Vmaxpu=1.2 model=1 kW=17.39 kvar=0.49029398470315966 Phases=2

New Load.load_p1ulv3901 conn=wye bus1=p1ulv3901.1.2 kV=0.2080002494301389 Vminpu=0.8 Vmaxpu=1.2 model=1 kW=9.79 kvar=0.46019348625622075 Phases=2

New Load.load_p1ulv3902 conn=wye bus1=p1ulv3902.1.2 kV=0.2080002494301389 Vminpu=0.8 Vmaxpu=1.2 model=1 kW=10.19 kvar=0.5504422049321929 Phases=2

New Load.load_p1ulv3903 conn=wye bus1=p1ulv3903.1.2 kV=0.2080002494301389 Vminpu=0.8 Vmaxpu=1.2 model=1 kW=10.41 kvar=0.5893824192907394 Phases=2

New Load.load_p1ulv3904 conn=wye bus1=p1ulv3900.1.2 kV=0.2080002494301389 Vminpu=0.8 Vmaxpu=1.2 model=1 kW=16.59 kvar=0.3203628815171678 Phases=2

New Load.load_p1ulv3905 conn=wye bus1=p1ulv3905.1.2 kV=0.2080002494301389 Vminpu=0.8 Vmaxpu=1.2 model=1 kW=10.49 kvar=0.6102734204701886 Phases=2

New Load.load_p1ulv3906 conn=wye bus1=p1ulv3906.1.2 kV=0.2080002494301389 Vminpu=0.8 Vmaxpu=1.2 model=1 kW=10.45 kvar=0.6005709639720869 Phases=2

New Load.load_p1ulv3907 conn=wye bus1=p1ulv3907.1.2 kV=0.2080002494301389 Vminpu=0.8 Vmaxpu=1.2 model=1 kW=2.94003 kvar=0.6000682817178988 Phases=2

New Load.load_p1ulv3908 conn=wye bus1=p1ulv3908.1.2 kV=0.2080002494301389 Vminpu=0.8 Vmaxpu=1.2 model=1 kW=17.64 kvar=0.5402110512846091 Phases=2

New Load.load_p1ulv3909 conn=wye bus1=p1ulv3909.1.2 kV=0.2080002494301389 Vminpu=0.8 Vmaxpu=1.2 model=1 kW=10.35 kvar=0.5802128332421591 Phases=2

New Load.load_p1ulv3910 conn=wye bus1=p1ulv3910.1.2 kV=0.2080002494301389 Vminpu=0.8 Vmaxpu=1.2 model=1 kW=2.11002 kvar=0.42956063002762096 Phases=2

New Load.load_p1ulv3911 conn=wye bus1=p1ulv3911.1.2 kV=0.2080002494301389 Vminpu=0.8 Vmaxpu=1.2 model=1 kW=18.01 kvar=0.6096359018765115 Phases=2

New Load.load_p1ulv3912 conn=wye bus1=p1ulv3912.1.2 kV=0.2080002494301389 Vminpu=0.8 Vmaxpu=1.2 model=1 kW=3.20003 kvar=0.6497938057886328 Phases=2

New Load.load_p1ulv3913 conn=wye bus1=p1ulv3913.1.2 kV=0.2080002494301389 Vminpu=0.8 Vmaxpu=1.2 model=1 kW=2.48002 kvar=0.499683245129122 Phases=2

New Load.load_p1ulv3914 conn=wye bus1=p1ulv3914.1.2 kV=0.2080002494301389 Vminpu=0.8 Vmaxpu=1.2 model=1 kW=2.89003 kvar=0.5898631429656088 Phases=2

New Load.load_p1ulv3915 conn=wye bus1=p1ulv3915.1.2 kV=0.2080002494301389 Vminpu=0.8 Vmaxpu=1.2 model=1 kW=10.1 kvar=0.5306733382023273 Phases=2

New Load.load_p1ulv3916 conn=wye bus1=p1ulv3916.1.2 kV=0.2080002494301389 Vminpu=0.8 Vmaxpu=1.2 model=1 kW=2.18002 kvar=0.44038539037902263 Phases=2

New Load.load_p1ulv3917 conn=wye bus1=p1ulv3917.1.2 kV=0.2080002494301389 Vminpu=0.8 Vmaxpu=1.2 model=1 kW=9.72 kvar=0.4496313641006546 Phases=2

New Load.load_p1ulv3918 conn=wye bus1=p1ulv3918.1.2 kV=0.2080002494301389 Vminpu=0.8 Vmaxpu=1.2 model=1 kW=2.89003 kvar=0.5898631429656088 Phases=2

New Load.load_p1ulv3919 conn=wye bus1=p1ulv3919.1.2 kV=0.2080002494301389 Vminpu=0.8 Vmaxpu=1.2 model=1 kW=2.24002 kvar=0.45014568129695803 Phases=2

New Load.load_p1ulv3920 conn=wye bus1=p1ulv3919.1.2 kV=0.2080002494301389 Vminpu=0.8 Vmaxpu=1.2 model=1 kW=2.83003 kvar=0.5702045040817287 Phases=2

New Load.load_p1ulv3930 conn=wye bus1=p1ulv3930.1.2 kV=0.2080002494301389 Vminpu=0.8 Vmaxpu=1.2 model=1 kW=9.95 kvar=0.500055880917707 Phases=2

New Load.load_p1ulv3932 conn=wye bus1=p1ulv3932.1.2 kV=0.2080002494301389 Vminpu=0.8 Vmaxpu=1.2 model=1 kW=9.94 kvar=0.5005510952023011 Phases=2

New Load.load_p1ulv3933 conn=wye bus1=p1ulv3933.1.2 kV=0.2080002494301389 Vminpu=0.8 Vmaxpu=1.2 model=1 kW=10.28 kvar=0.5601303263507202 Phases=2

New Load.load_p1ulv3934 conn=wye bus1=p1ulv3934.1.2 kV=0.2080002494301389 Vminpu=0.8 Vmaxpu=1.2 model=1 kW=2.15002 kvar=0.43994369930755917 Phases=2

New Load.load_p1ulv3935 conn=wye bus1=p1ulv3935.1.2 kV=0.2080002494301389 Vminpu=0.8 Vmaxpu=1.2 model=1 kW=10.04 kvar=0.5197487439894416 Phases=2

New Load.load_p1ulv3936 conn=wye bus1=p1ulv3935.1.2 kV=0.2080002494301389 Vminpu=0.8 Vmaxpu=1.2 model=1 kW=10.3 kvar=0.5700337678771953 Phases=2

New Load.load_p1ulv3937 conn=wye bus1=p1ulv3937.1.2 kV=0.2080002494301389 Vminpu=0.8 Vmaxpu=1.2 model=1 kW=10.39 kvar=0.5898631429656088 Phases=2

New Load.load_p1ulv3938 conn=wye bus1=p1ulv3938.1.2 kV=0.2080002494301389 Vminpu=0.8 Vmaxpu=1.2 model=1 kW=2.42002 kvar=0.49013832927219847 Phases=2

New Load.load_p1ulv3939 conn=wye bus1=p1ulv3939.1.2 kV=0.2080002494301389 Vminpu=0.8 Vmaxpu=1.2 model=1 kW=9.61 kvar=0.42956063002762096 Phases=2

New Load.load_p1ulv3940 conn=wye bus1=p1ulv3940.1.2 kV=0.2080002494301389 Vminpu=0.8 Vmaxpu=1.2 model=1 kW=12.58 kvar=1.0288870420985081 Phases=2

New Load.load_p1ulv3941 conn=wye bus1=p1ulv3941.1.2 kV=0.2080002494301389 Vminpu=0.8 Vmaxpu=1.2 model=1 kW=10.01 kvar=0.5096833299511698 Phases=2

New Load.load_p1ulv3942 conn=wye bus1=p1ulv3942.1.2 kV=0.2080002494301389 Vminpu=0.8 Vmaxpu=1.2 model=1 kW=9.35 kvar=0.38047547394451825 Phases=2

New Load.load_p1ulv3943 conn=wye bus1=p1ulv3943.1.2 kV=0.2080002494301389 Vminpu=0.8 Vmaxpu=1.2 model=1 kW=10.15 kvar=0.5394965717823037 Phases=2

New Load.load_p1ulv3944 conn=wye bus1=p1ulv3944.1.2 kV=0.2080002494301389 Vminpu=0.8 Vmaxpu=1.2 model=1 kW=2.5500300000000005 kvar=0.5204681994500374 Phases=2

New Load.load_p1ulv3945 conn=wye bus1=p1ulv3945.1.2 kV=0.2080002494301389 Vminpu=0.8 Vmaxpu=1.2 model=1 kW=9.98 kvar=0.499683245129122 Phases=2

New Load.load_p1ulv3946 conn=wye bus1=p1ulv3946.1.2 kV=0.2080002494301389 Vminpu=0.8 Vmaxpu=1.2 model=1 kW=9.85 kvar=0.47964560341312734 Phases=2

New Load.load_p1ulv3947 conn=wye bus1=p1ulv3947.1.2 kV=0.2080002494301389 Vminpu=0.8 Vmaxpu=1.2 model=1 kW=10.43 kvar=0.5995517424405946 Phases=2

New Load.load_p1ulv3948 conn=wye bus1=p1ulv3948.1.2 kV=0.2080002494301389 Vminpu=0.8 Vmaxpu=1.2 model=1 kW=9.62 kvar=0.4304884217173018 Phases=2

New Load.load_p1ulv3949 conn=wye bus1=p1ulv3949.1.2 kV=0.2080002494301389 Vminpu=0.8 Vmaxpu=1.2 model=1 kW=17.51 kvar=0.5096833299511698 Phases=2

New Load.load_p1ulv3950 conn=wye bus1=p1ulv3950.1.2 kV=0.2080002494301389 Vminpu=0.8 Vmaxpu=1.2 model=1 kW=2.41002 kvar=0.489375433301163 Phases=2

New Load.load_p1ulv3951 conn=wye bus1=p1ulv3951.1.2 kV=0.2080002494301389 Vminpu=0.8 Vmaxpu=1.2 model=1 kW=2.17002 kvar=0.4395046228077686 Phases=2

New Load.load_p1ulv3952 conn=wye bus1=p1ulv3952.1.2 kV=0.2080002494301389 Vminpu=0.8 Vmaxpu=1.2 model=1 kW=9.54 kvar=0.4099544614599067 Phases=2

New Load.load_p1ulv3953 conn=wye bus1=p1ulv3953.1.2 kV=0.2080002494301389 Vminpu=0.8 Vmaxpu=1.2 model=1 kW=9.78 kvar=0.46058636974522216 Phases=2

New Load.load_p1ulv3954 conn=wye bus1=p1ulv3954.1.2 kV=0.2080002494301389 Vminpu=0.8 Vmaxpu=1.2 model=1 kW=2.14002 kvar=0.4300500713784323 Phases=2

New Load.load_p1ulv3955 conn=wye bus1=p1ulv3955.1.2 kV=0.2080002494301389 Vminpu=0.8 Vmaxpu=1.2 model=1 kW=3.06003 kvar=0.6197626431693976 Phases=2

New Load.load_p1ulv3956 conn=wye bus1=p1ulv3956.1.2 kV=0.2080002494301389 Vminpu=0.8 Vmaxpu=1.2 model=1 kW=2.60003 kvar=0.5306733382023273 Phases=2

New Load.load_p1ulv3957 conn=wye bus1=p1ulv3957.1.2 kV=0.2080002494301389 Vminpu=0.8 Vmaxpu=1.2 model=1 kW=11.49 kvar=0.8102121782761024 Phases=2

New Load.load_p1ulv3958 conn=wye bus1=p1ulv3958.1.2 kV=0.2080002494301389 Vminpu=0.8 Vmaxpu=1.2 model=1 kW=18.13 kvar=0.6306495704677809 Phases=2

New Load.load_p1ulv3959 conn=wye bus1=p1ulv3959.1.2 kV=0.2080002494301389 Vminpu=0.8 Vmaxpu=1.2 model=1 kW=17.53 kvar=0.5097594376956769 Phases=2

New Load.load_p1ulv3960 conn=wye bus1=p1ulv3960.1.2 kV=0.2080002494301389 Vminpu=0.8 Vmaxpu=1.2 model=1 kW=9.35 kvar=0.38047547394451825 Phases=2

New Load.load_p1ulv3961 conn=wye bus1=p1ulv3961.1.2 kV=0.2080002494301389 Vminpu=0.8 Vmaxpu=1.2 model=1 kW=2.16002 kvar=0.43973969539258484 Phases=2

New Load.load_p1ulv3962 conn=wye bus1=p1ulv3962.1.2 kV=0.2080002494301389 Vminpu=0.8 Vmaxpu=1.2 model=1 kW=10.46 kvar=0.5995091605836256 Phases=2

New Load.load_p1ulv3963 conn=wye bus1=p1ulv3963.1.2 kV=0.2080002494301389 Vminpu=0.8 Vmaxpu=1.2 model=1 kW=9.96 kvar=0.49952836633286324 Phases=2

New Load.load_p1ulv3964 conn=wye bus1=p1ulv3964.1.2 kV=0.2080002494301389 Vminpu=0.8 Vmaxpu=1.2 model=1 kW=10.32 kvar=0.5696736784206362 Phases=2

New Load.load_p1ulv3965 conn=wye bus1=p1ulv3965.1.2 kV=0.2080002494301389 Vminpu=0.8 Vmaxpu=1.2 model=1 kW=10.56 kvar=0.6197626431693976 Phases=2

New Load.load_p1ulv3966 conn=wye bus1=p1ulv3966.1.2 kV=0.2080002494301389 Vminpu=0.8 Vmaxpu=1.2 model=1 kW=9.83 kvar=0.469460711936096 Phases=2

New Load.load_p1ulv3967 conn=wye bus1=p1ulv3967.1.2 kV=0.2080002494301389 Vminpu=0.8 Vmaxpu=1.2 model=1 kW=2.23002 kvar=0.45048588006212237 Phases=2

New Load.load_p1ulv3968 conn=wye bus1=p1ulv3968.1.2 kV=0.2080002494301389 Vminpu=0.8 Vmaxpu=1.2 model=1 kW=10.21 kvar=0.5502950620779706 Phases=2

New Load.load_p1ulv3969 conn=wye bus1=p1ulv3969.1.2 kV=0.2080002494301389 Vminpu=0.8 Vmaxpu=1.2 model=1 kW=2.83003 kvar=0.580558608517704 Phases=2

New Load.load_p1ulv3970 conn=wye bus1=p1ulv3970.1.2 kV=0.2080002494301389 Vminpu=0.8 Vmaxpu=1.2 model=1 kW=2.7800300000000004 kvar=0.5703014980185626 Phases=2

New Load.load_p1ulv3971 conn=wye bus1=p1ulv3971.1.2 kV=0.2080002494301389 Vminpu=0.8 Vmaxpu=1.2 model=1 kW=2.52003 kvar=0.510393837206229 Phases=2

New Load.load_p1ulv3972 conn=wye bus1=p1ulv3972.1.2 kV=0.2080002494301389 Vminpu=0.8 Vmaxpu=1.2 model=1 kW=9.7 kvar=0.45017485295514287 Phases=2

New Load.load_p1ulv3973 conn=wye bus1=p1ulv3973.1.2 kV=0.2080002494301389 Vminpu=0.8 Vmaxpu=1.2 model=1 kW=2.7600300000000004 kvar=0.5604479951096709 Phases=2

New Load.load_p1ulv3974 conn=wye bus1=p1ulv3974.1.2 kV=0.2080002494301389 Vminpu=0.8 Vmaxpu=1.2 model=1 kW=10.42 kvar=0.5898746577868357 Phases=2

New Load.load_p1ulv3975 conn=wye bus1=p1ulv3975.1.2 kV=0.2080002494301389 Vminpu=0.8 Vmaxpu=1.2 model=1 kW=10.1 kvar=0.5306733382023273 Phases=2

New Load.load_p1ulv3976 conn=wye bus1=p1ulv3976.1.2 kV=0.2080002494301389 Vminpu=0.8 Vmaxpu=1.2 model=1 kW=1.63002 kvar=0.3301358168446 Phases=2

New Load.load_p1ulv3977 conn=wye bus1=p1ulv3977.1.2 kV=0.2080002494301389 Vminpu=0.8 Vmaxpu=1.2 model=1 kW=9.96 kvar=0.49952836633286324 Phases=2

New Load.load_p1ulv3978 conn=wye bus1=p1ulv3977.1.2 kV=0.2080002494301389 Vminpu=0.8 Vmaxpu=1.2 model=1 kW=9.46 kvar=0.40004552114526587 Phases=2

New Load.load_p1ulv3979 conn=wye bus1=p1ulv3979.1.2 kV=0.2080002494301389 Vminpu=0.8 Vmaxpu=1.2 model=1 kW=2.38002 kvar=0.47953488966710467 Phases=2

New Load.load_p1ulv3980 conn=wye bus1=p1ulv3980.1.2 kV=0.2080002494301389 Vminpu=0.8 Vmaxpu=1.2 model=1 kW=2.52003 kvar=0.510393837206229 Phases=2

New Load.load_p1ulv3981 conn=wye bus1=p1ulv3981.1.2 kV=0.2080002494301389 Vminpu=0.8 Vmaxpu=1.2 model=1 kW=2.90003 kvar=0.5903918986071232 Phases=2

New Load.load_p1ulv3982 conn=wye bus1=p1ulv3982.1.2 kV=0.2080002494301389 Vminpu=0.8 Vmaxpu=1.2 model=1 kW=10.38 kvar=0.5802786818127376 Phases=2

New Load.load_p1ulv3983 conn=wye bus1=p1ulv3983.1.2 kV=0.2080002494301389 Vminpu=0.8 Vmaxpu=1.2 model=1 kW=2.97003 kvar=0.5999751474699353 Phases=2

New Load.load_p1ulv3984 conn=wye bus1=p1ulv3984.1.2 kV=0.2080002494301389 Vminpu=0.8 Vmaxpu=1.2 model=1 kW=17.83 kvar=0.5702045040817287 Phases=2

New Load.load_p1ulv3985 conn=wye bus1=p1ulv3985.1.2 kV=0.2080002494301389 Vminpu=0.8 Vmaxpu=1.2 model=1 kW=3.00003 kvar=0.6107500293370508 Phases=2

New Load.load_p1ulv3986 conn=wye bus1=p1ulv3986.1.2 kV=0.2080002494301389 Vminpu=0.8 Vmaxpu=1.2 model=1 kW=2.87003 kvar=0.5797741681037358 Phases=2

New Load.load_p1ulv3987 conn=wye bus1=p1ulv3987.1.2 kV=0.2080002494301389 Vminpu=0.8 Vmaxpu=1.2 model=1 kW=10.22 kvar=0.5494726990544365 Phases=2

New Load.load_p1ulv4338 conn=wye bus1=p1ulv4338.1.2.3 kV=0.48 Vminpu=0.8 Vmaxpu=1.2 model=1 kW=38.260400000000004 kvar=7.769105579321258 Phases=3

New Load.load_p1ulv4339 conn=wye bus1=p1ulv4339.1.2 kV=0.2080002494301389 Vminpu=0.8 Vmaxpu=1.2 model=1 kW=10.93 kvar=0.70007864149034 Phases=2

New Load.load_p1ulv4340 conn=wye bus1=p1ulv4340.1.2 kV=0.2080002494301389 Vminpu=0.8 Vmaxpu=1.2 model=1 kW=10.45 kvar=0.6005709639720869 Phases=2

New Load.load_p1ulv4341 conn=wye bus1=p1ulv4341.1.2 kV=0.2080002494301389 Vminpu=0.8 Vmaxpu=1.2 model=1 kW=18.71 kvar=0.7494644148777485 Phases=2

New Load.load_p1ulv4342 conn=wye bus1=p1ulv4342.1.2 kV=0.2080002494301389 Vminpu=0.8 Vmaxpu=1.2 model=1 kW=10.63 kvar=0.6404763570309296 Phases=2

New Load.load_p1ulv4343 conn=wye bus1=p1ulv4343.1.2 kV=0.2080002494301389 Vminpu=0.8 Vmaxpu=1.2 model=1 kW=10.82 kvar=0.6706785752516337 Phases=2

New Load.load_p1ulv4344 conn=wye bus1=p1ulv4344.1.2 kV=0.2080002494301389 Vminpu=0.8 Vmaxpu=1.2 model=1 kW=2.8200300000000005 kvar=0.5696736784206362 Phases=2

New Load.load_p1ulv4345 conn=wye bus1=p1ulv4345.1.2 kV=0.2080002494301389 Vminpu=0.8 Vmaxpu=1.2 model=1 kW=5.03005 kvar=1.0187603008056223 Phases=2

New Load.load_p1ulv4362 conn=wye bus1=p1ulv4362.1.2 kV=0.2080002494301389 Vminpu=0.8 Vmaxpu=1.2 model=1 kW=3.0700300000000005 kvar=0.620176126836135 Phases=2

New Load.load_p1ulv4363 conn=wye bus1=p1ulv4363.1.2 kV=0.2080002494301389 Vminpu=0.8 Vmaxpu=1.2 model=1 kW=10.63 kvar=0.6404763570309296 Phases=2

New Load.load_p1ulv4364 conn=wye bus1=p1ulv4364.1.2 kV=0.2080002494301389 Vminpu=0.8 Vmaxpu=1.2 model=1 kW=21.8001 kvar=1.3808131064174733 Phases=2

New Load.load_p1ulv4368 conn=wye bus1=p1ulv4368.1.2 kV=0.2080002494301389 Vminpu=0.8 Vmaxpu=1.2 model=1 kW=34.03 kvar=0.8204408116683792 Phases=2

New Load.load_p1ulv4370 conn=wye bus1=p1ulv4370.1.2 kV=0.2080002494301389 Vminpu=0.8 Vmaxpu=1.2 model=1 kW=25.57 kvar=0.620176126836135 Phases=2

New Load.load_p1ulv4371 conn=wye bus1=p1ulv4371.1.2 kV=0.2080002494301389 Vminpu=0.8 Vmaxpu=1.2 model=1 kW=11.3 kvar=0.7696404396523686 Phases=2

New Load.load_p1umv6 conn=wye bus1=p1umv6.1.2.3 kV=12.47 Vminpu=0.8 Vmaxpu=1.2 model=1 kW=825.7480000000002 kvar=167.6752829012078 Phases=3

New Load.load_p1ulv4574 conn=wye bus1=p1ulv4574.1.2.3 kV=0.48 Vminpu=0.8 Vmaxpu=1.2 model=1 kW=35.1404 kvar=7.135562558143165 Phases=3

New Load.load_p1ulv4575 conn=wye bus1=p1ulv4575.1.2 kV=0.2080002494301389 Vminpu=0.8 Vmaxpu=1.2 model=1 kW=17.9602 kvar=5.903232265833419 Phases=2

New Load.load_p1ulv4576 conn=wye bus1=p1ulv4576.1.2 kV=0.2080002494301389 Vminpu=0.8 Vmaxpu=1.2 model=1 kW=10.45 kvar=0.6005709639720869 Phases=2

New Load.load_p1ulv4579 conn=wye bus1=p1ulv4579.1.2 kV=0.2080002494301389 Vminpu=0.8 Vmaxpu=1.2 model=1 kW=11.08 kvar=0.7306960987749602 Phases=2

New Load.load_p1ulv4580 conn=wye bus1=p1ulv4580.1.2 kV=0.2080002494301389 Vminpu=0.8 Vmaxpu=1.2 model=1 kW=11.5 kvar=0.8101474048239126 Phases=2

New Load.load_p1ulv4582 conn=wye bus1=p1ulv4582.1.2 kV=0.2080002494301389 Vminpu=0.8 Vmaxpu=1.2 model=1 kW=10.75 kvar=0.659946738820333 Phases=2

New Load.load_p1ulv4583 conn=wye bus1=p1ulv4583.1.2 kV=0.2080002494301389 Vminpu=0.8 Vmaxpu=1.2 model=1 kW=10.26 kvar=0.5604479951096709 Phases=2

New Load.load_p1ulv4588 conn=wye bus1=p1ulv4588.1.2 kV=0.2080002494301389 Vminpu=0.8 Vmaxpu=1.2 model=1 kW=10.37 kvar=0.5797741681037358 Phases=2

New Load.load_p1ulv4592 conn=wye bus1=p1ulv4592.1.2 kV=0.2080002494301389 Vminpu=0.8 Vmaxpu=1.2 model=1 kW=10.95 kvar=0.7005584709471337 Phases=2

New Load.load_p1ulv4607 conn=wye bus1=p1ulv4607.1.2 kV=0.2080002494301389 Vminpu=0.8 Vmaxpu=1.2 model=1 kW=11.31 kvar=0.769665394243948 Phases=2

New Load.load_p1ulv4609 conn=wye bus1=p1ulv4609.1.2 kV=0.2080002494301389 Vminpu=0.8 Vmaxpu=1.2 model=1 kW=10.84 kvar=0.679967673818805 Phases=2

New Load.load_p1ulv4611 conn=wye bus1=p1ulv4611.1.2 kV=0.2080002494301389 Vminpu=0.8 Vmaxpu=1.2 model=1 kW=19.85 kvar=0.9797575997503596 Phases=2

New Load.load_p1ulv4613 conn=wye bus1=p1ulv4613.1.2 kV=0.2080002494301389 Vminpu=0.8 Vmaxpu=1.2 model=1 kW=17.78 kvar=0.5703014980185626 Phases=2

New Load.load_p1ulv4615 conn=wye bus1=p1ulv4615.1.2 kV=0.2080002494301389 Vminpu=0.8 Vmaxpu=1.2 model=1 kW=1.47001 kvar=0.3000331203450741 Phases=2

New Load.load_p1ulv4619 conn=wye bus1=p1ulv4619.1.2 kV=0.2080002494301389 Vminpu=0.8 Vmaxpu=1.2 model=1 kW=2.86003 kvar=0.5807538611730713 Phases=2

New Load.load_p1ulv4621 conn=wye bus1=p1ulv4621.1.2 kV=0.2080002494301389 Vminpu=0.8 Vmaxpu=1.2 model=1 kW=3.15003 kvar=0.6396408727569326 Phases=2

New Load.load_p1ulv4624 conn=wye bus1=p1ulv4624.1.2 kV=0.2080002494301389 Vminpu=0.8 Vmaxpu=1.2 model=1 kW=34.8901 kvar=0.9904054251855413 Phases=2

New Load.load_p1ulv4625 conn=wye bus1=p1ulv4625.1.2 kV=0.2080002494301389 Vminpu=0.8 Vmaxpu=1.2 model=1 kW=2.84003 kvar=0.5796580042133189 Phases=2

New Load.load_p1ulv4630 conn=wye bus1=p1ulv4630.1.2 kV=0.2080002494301389 Vminpu=0.8 Vmaxpu=1.2 model=1 kW=10.68 kvar=0.6507075106785133 Phases=2

New Load.load_p1ulv4631 conn=wye bus1=p1ulv4631.1.2 kV=0.2080002494301389 Vminpu=0.8 Vmaxpu=1.2 model=1 kW=35.3501 kvar=1.0891701731164982 Phases=2

New Load.load_p1ulv4634 conn=wye bus1=p1ulv4634.1.2 kV=0.2080002494301389 Vminpu=0.8 Vmaxpu=1.2 model=1 kW=12.9801 kvar=1.109900972441596 Phases=2

New Load.load_p1ulv4640 conn=wye bus1=p1ulv4640.1.2 kV=0.2080002494301389 Vminpu=0.8 Vmaxpu=1.2 model=1 kW=18.84 kvar=0.7797533791810017 Phases=2

New Load.load_p1ulv4641 conn=wye bus1=p1ulv4641.1.2 kV=0.2080002494301389 Vminpu=0.8 Vmaxpu=1.2 model=1 kW=20.8001 kvar=1.1807837972142463 Phases=2

New Load.load_p1ulv4651 conn=wye bus1=p1ulv4651.1.2 kV=0.2080002494301389 Vminpu=0.8 Vmaxpu=1.2 model=1 kW=7.17007 kvar=1.459692224027329 Phases=2

New Load.load_p1ulv4652 conn=wye bus1=p1ulv4652.1.2 kV=0.2080002494301389 Vminpu=0.8 Vmaxpu=1.2 model=1 kW=10.7201 kvar=2.182411972378982 Phases=2

New Load.load_p1ulv4656 conn=wye bus1=p1ulv4656.1.2 kV=0.2080002494301389 Vminpu=0.8 Vmaxpu=1.2 model=1 kW=3.93004 kvar=0.8000826809384517 Phases=2

New Load.load_p1ulv4660 conn=wye bus1=p1ulv4660.1.2 kV=0.2080002494301389 Vminpu=0.8 Vmaxpu=1.2 model=1 kW=5.75006 kvar=1.1706047318492825 Phases=2

New Load.load_p1ulv4793 conn=wye bus1=p1ulv4793.1.2 kV=0.2080002494301389 Vminpu=0.8 Vmaxpu=1.2 model=1 kW=11.31 kvar=0.769665394243948 Phases=2

New Load.load_p1ulv4794 conn=wye bus1=p1ulv4794.1.2 kV=0.2080002494301389 Vminpu=0.8 Vmaxpu=1.2 model=1 kW=11.88 kvar=0.8894050559233643 Phases=2

New Load.load_p1ulv4795 conn=wye bus1=p1ulv4795.1.2 kV=0.2080002494301389 Vminpu=0.8 Vmaxpu=1.2 model=1 kW=13.0601 kvar=1.129018336644702 Phases=2

New Load.load_p1ulv4798 conn=wye bus1=p1ulv4798.1.2 kV=0.2080002494301389 Vminpu=0.8 Vmaxpu=1.2 model=1 kW=4.05004 kvar=0.8202741461167985 Phases=2

New Load.load_p1ulv4799 conn=wye bus1=p1ulv4799.1.2 kV=0.2080002494301389 Vminpu=0.8 Vmaxpu=1.2 model=1 kW=6.43006 kvar=1.3090400208127908 Phases=2

New Load.load_p1ulv4800 conn=wye bus1=p1ulv4800.1.2 kV=0.2080002494301389 Vminpu=0.8 Vmaxpu=1.2 model=1 kW=4.22004 kvar=0.8591212600552419 Phases=2

New Load.load_p1ulv4801 conn=wye bus1=p1ulv4801.1.2 kV=0.2080002494301389 Vminpu=0.8 Vmaxpu=1.2 model=1 kW=11.31 kvar=0.769665394243948 Phases=2

New Load.load_p1ulv10411 conn=wye bus1=p1ulv10411.1.2.3 kV=0.48 Vminpu=0.8 Vmaxpu=1.2 model=1 kW=82.4008 kvar=16.73219608317046 Phases=3

New Load.load_p1ulv10412 conn=wye bus1=p1ulv10412.1.2.3 kV=0.48 Vminpu=0.8 Vmaxpu=1.2 model=1 kW=42.720400000000005 kvar=8.674747205748918 Phases=3

New Load.load_p1ulv10414 conn=wye bus1=p1ulv10414.1.2 kV=0.2080002494301389 Vminpu=0.8 Vmaxpu=1.2 model=1 kW=10.590100000000001 kvar=3.480797542254679 Phases=2

New Load.load_p1ulv10415 conn=wye bus1=p1ulv10415.1.2 kV=0.2080002494301389 Vminpu=0.8 Vmaxpu=1.2 model=1 kW=3.78004 kvar=0.7695454848435601 Phases=2

New Load.load_p1ulv10417 conn=wye bus1=p1ulv10417.1.2 kV=0.2080002494301389 Vminpu=0.8 Vmaxpu=1.2 model=1 kW=7.14007 kvar=1.449853051033035 Phases=2

New Load.load_p1ulv10419 conn=wye bus1=p1ulv10419.1.2 kV=0.2080002494301389 Vminpu=0.8 Vmaxpu=1.2 model=1 kW=4.61005 kvar=0.9409239980998833 Phases=2

New Load.load_p1ulv10420 conn=wye bus1=p1ulv10420.1.2 kV=0.2080002494301389 Vminpu=0.8 Vmaxpu=1.2 model=1 kW=14.930100000000001 kvar=3.0316861091317477 Phases=2

New Load.load_p1ulv10422 conn=wye bus1=p1ulv10422.1.2 kV=0.2080002494301389 Vminpu=0.8 Vmaxpu=1.2 model=1 kW=3.00003 kvar=0.6107500293370508 Phases=2

New Load.load_p1ulv10424 conn=wye bus1=p1ulv10424.1.2 kV=0.2080002494301389 Vminpu=0.8 Vmaxpu=1.2 model=1 kW=3.42003 kvar=0.6908795546178332 Phases=2

New Load.load_p1ulv10426 conn=wye bus1=p1ulv10426.1.2 kV=0.2080002494301389 Vminpu=0.8 Vmaxpu=1.2 model=1 kW=3.64004 kvar=0.739141647054201 Phases=2

New Load.load_p1ulv10429 conn=wye bus1=p1ulv10429.1.2 kV=0.2080002494301389 Vminpu=0.8 Vmaxpu=1.2 model=1 kW=4.60005 kvar=0.9292551513348608 Phases=2

New Load.load_p1ulv10432 conn=wye bus1=p1ulv10432.1.2 kV=0.2080002494301389 Vminpu=0.8 Vmaxpu=1.2 model=1 kW=3.9400400000000007 kvar=0.8000592452444024 Phases=2

New Load.load_p1ulv10434 conn=wye bus1=p1ulv10434.1.2 kV=0.2080002494301389 Vminpu=0.8 Vmaxpu=1.2 model=1 kW=1.85002 kvar=0.38047547394451825 Phases=2

New Load.load_p1ulv10435 conn=wye bus1=p1ulv10435.1.2 kV=0.2080002494301389 Vminpu=0.8 Vmaxpu=1.2 model=1 kW=3.04003 kvar=0.6204785592224786 Phases=2

New Load.load_p1ulv10436 conn=wye bus1=p1ulv10436.1.2 kV=0.2080002494301389 Vminpu=0.8 Vmaxpu=1.2 model=1 kW=3.47003 kvar=0.6991539790386396 Phases=2

New Load.load_p1ulv10439 conn=wye bus1=p1ulv10439.1.2 kV=0.2080002494301389 Vminpu=0.8 Vmaxpu=1.2 model=1 kW=2.1000200000000007 kvar=0.4297125456599755 Phases=2

New Load.load_p1ulv10441 conn=wye bus1=p1ulv10441.1.2 kV=0.2080002494301389 Vminpu=0.8 Vmaxpu=1.2 model=1 kW=4.70005 kvar=0.959293247854005 Phases=2

New Load.load_p1ulv10443 conn=wye bus1=p1ulv10443.1.2 kV=0.2080002494301389 Vminpu=0.8 Vmaxpu=1.2 model=1 kW=2.50002 kvar=0.510261019669997 Phases=2

New Load.load_p1ulv10445 conn=wye bus1=p1ulv10445.1.2 kV=0.2080002494301389 Vminpu=0.8 Vmaxpu=1.2 model=1 kW=3.0100300000000004 kvar=0.6096359018765115 Phases=2

New Load.load_p1ulv10447 conn=wye bus1=p1ulv10447.1.2 kV=0.2080002494301389 Vminpu=0.8 Vmaxpu=1.2 model=1 kW=4.42004 kvar=0.8998375215150975 Phases=2

New Load.load_p1ulv10448 conn=wye bus1=p1ulv10448.1.2 kV=0.2080002494301389 Vminpu=0.8 Vmaxpu=1.2 model=1 kW=3.36003 kvar=0.6805230909267135 Phases=2

New Load.load_p1ulv10449 conn=wye bus1=p1ulv10449.1.2 kV=0.2080002494301389 Vminpu=0.8 Vmaxpu=1.2 model=1 kW=4.27004 kvar=0.869300325420206 Phases=2

New Load.load_p1ulv10450 conn=wye bus1=p1ulv10450.1.2 kV=0.2080002494301389 Vminpu=0.8 Vmaxpu=1.2 model=1 kW=3.57004 kvar=0.7305125553603958 Phases=2

New Load.load_p1ulv10451 conn=wye bus1=p1ulv10451.1.2 kV=0.2080002494301389 Vminpu=0.8 Vmaxpu=1.2 model=1 kW=3.9600400000000002 kvar=0.7999668632932473 Phases=2

New Load.load_p1ulv10452 conn=wye bus1=p1ulv10452.1.2 kV=0.2080002494301389 Vminpu=0.8 Vmaxpu=1.2 model=1 kW=3.61004 kvar=0.7292634355115489 Phases=2

New Load.load_p1ulv10453 conn=wye bus1=p1ulv10453.1.2 kV=0.2080002494301389 Vminpu=0.8 Vmaxpu=1.2 model=1 kW=3.52004 kvar=0.7092301716051945 Phases=2

New Load.load_p1ulv10454 conn=wye bus1=p1ulv10454.1.2 kV=0.2080002494301389 Vminpu=0.8 Vmaxpu=1.2 model=1 kW=4.46004 kvar=0.910306540815263 Phases=2

New Load.load_p1ulv10455 conn=wye bus1=p1ulv10455.1.2 kV=0.2080002494301389 Vminpu=0.8 Vmaxpu=1.2 model=1 kW=2.92003 kvar=0.5898746577868357 Phases=2

New Load.load_p1ulv10456 conn=wye bus1=p1ulv10456.1.2 kV=0.2080002494301389 Vminpu=0.8 Vmaxpu=1.2 model=1 kW=3.70004 kvar=0.7493869570665965 Phases=2

New Load.load_p1ulv10457 conn=wye bus1=p1ulv10457.1.2 kV=0.2080002494301389 Vminpu=0.8 Vmaxpu=1.2 model=1 kW=3.12003 kvar=0.6302766165192346 Phases=2

New Load.load_p1ulv10458 conn=wye bus1=p1ulv10458.1.2 kV=0.2080002494301389 Vminpu=0.8 Vmaxpu=1.2 model=1 kW=4.46004 kvar=0.9009717601242447 Phases=2

New Load.load_p1ulv10459 conn=wye bus1=p1ulv10459.1.2 kV=0.2080002494301389 Vminpu=0.8 Vmaxpu=1.2 model=1 kW=3.74004 kvar=0.7594475131176014 Phases=2

New Load.load_p1ulv10460 conn=wye bus1=p1ulv10460.1.2 kV=0.2080002494301389 Vminpu=0.8 Vmaxpu=1.2 model=1 kW=3.66004 kvar=0.7393639251946486 Phases=2
