New Line.l(r:p1ulv789-udt376lv) Units=km Length=0.0217982 bus1=udt376lv.1.2 bus2=p1ulv789.1.2 switch=n enabled=y phases=2 Linecode=1P_OH_AL_2/0_Rucina_0_416_0_2_2

New Line.l(r:p1ulv794-udm1475) Units=km Length=0.0235685 bus1=udm1475.1.2 bus2=p1ulv794.1.2 switch=n enabled=y phases=2 Linecode=1P_OH_AL_2/0_Rucina_0_416_0_2_2

New Line.l(r:udm1475-udt376lv) Units=km Length=0.0350876 bus1=udt376lv.1.2 bus2=udm1475.1.2 switch=n enabled=y phases=2 Linecode=1P_OH_AL_4/0_Zuzara_0_416_0_2_2

New Line.l(r:p1ulv48464-udm1476) Units=km Length=0.023025 bus1=udm1476.1.2 bus2=p1ulv48464.1.2 switch=n enabled=y phases=2 Linecode=1P_OH_AL_2/0_Rucina_0_416_0_2_2

New Line.l(r:udm1476-udt376lv) Units=km Length=0.0350876 bus1=udt376lv.1.2 bus2=udm1476.1.2 switch=n enabled=y phases=2 Linecode=1P_OH_AL_4/0_Zuzara_0_416_0_2_2

New Line.l(r:p1ulv790-udm1477) Units=km Length=0.017124 bus1=udm1477.1.2 bus2=p1ulv790.1.2 switch=n enabled=y phases=2 Linecode=1P_UG_AL_1/0_Brenau_0_416_0_2_2

New Line.l(r:p1ulv52770-udm1478) Units=km Length=0.0190434 bus1=udm1478.1.2 bus2=p1ulv52770.1.2 switch=n enabled=y phases=2 Linecode=1P_OH_AL_2/0_Rucina_0_416_0_2_2

New Line.l(r:udm1477-udm1478) Units=km Length=0.0776241 bus1=udm1477.1.2 bus2=udm1478.1.2 switch=n enabled=y phases=2 Linecode=1P_OH_AL_4/0_Zuzara_0_416_0_2_2

New Line.l(r:udm1477-udt377lv) Units=km Length=0.00968967 bus1=udt377lv.1.2 bus2=udm1477.1.2 switch=n enabled=y phases=2 Linecode=1P_OH_AL_2/0_Rucina_0_416_0_2_2

New Line.l(r:p1ulv57708-udm1479) Units=km Length=0.013254400000000001 bus1=udm1479.1.2 bus2=p1ulv57708.1.2 switch=n enabled=y phases=2 Linecode=1P_OH_AL_2/0_Rucina_0_416_0_2_2

New Line.l(r:udm1479-udt377lv) Units=km Length=0.013764400000000001 bus1=udt377lv.1.2 bus2=udm1479.1.2 switch=n enabled=y phases=2 Linecode=1P_OH_AL_2/0_Rucina_0_416_0_2_2

New Line.l(r:p1ulv791-udt378lv) Units=km Length=0.0216871 bus1=udt378lv.1.2 bus2=p1ulv791.1.2 switch=n enabled=y phases=2 Linecode=1P_OH_AL_2/0_Rucina_0_416_0_2_2

New Line.l(r:p1ulv56617-udt378lv) Units=km Length=0.0172001 bus1=udt378lv.1.2 bus2=p1ulv56617.1.2 switch=n enabled=y phases=2 Linecode=1P_OH_AL_2/0_Rucina_0_416_0_2_2

New Line.l(r:p1ulv40426-udm1481) Units=km Length=0.0131992 bus1=udm1481.1.2 bus2=p1ulv40426.1.2 switch=n enabled=y phases=2 Linecode=1P_OH_AL_2/0_Rucina_0_416_0_2_2

New Line.l(r:p1ulv43707-udm1482) Units=km Length=0.014789800000000002 bus1=udm1482.1.2 bus2=p1ulv43707.1.2 switch=n enabled=y phases=2 Linecode=1P_OH_AL_2/0_Rucina_0_416_0_2_2

New Line.l(r:udm1481-udm1482) Units=km Length=0.0152453 bus1=udm1481.1.2 bus2=udm1482.1.2 switch=n enabled=y phases=2 Linecode=1P_OH_AL_2/0_Rucina_0_416_0_2_2

New Line.l(r:udm1481-udt378lv) Units=km Length=0.0497115 bus1=udt378lv.1.2 bus2=udm1481.1.2 switch=n enabled=y phases=2 Linecode=1P_OH_AL_4/0_Zuzara_0_416_0_2_2

New Line.l(r:p1ulv55751-udm1483) Units=km Length=0.0174239 bus1=udm1483.1.2 bus2=p1ulv55751.1.2 switch=n enabled=y phases=2 Linecode=1P_OH_AL_2/0_Rucina_0_416_0_2_2

New Line.l(r:p1ulv59122-udm1483) Units=km Length=0.0202218 bus1=udm1483.1.2 bus2=p1ulv59122.1.2 switch=n enabled=y phases=2 Linecode=1P_OH_AL_2/0_Rucina_0_416_0_2_2

New Line.l(r:udm1483-udt378lv) Units=km Length=0.0327156 bus1=udt378lv.1.2 bus2=udm1483.1.2 switch=n enabled=y phases=2 Linecode=1P_OH_AL_4/0_Zuzara_0_416_0_2_2

New Line.l(r:p1ulv792-udm1486) Units=km Length=0.0303253 bus1=udm1486.1.2 bus2=p1ulv792.1.2 switch=n enabled=y phases=2 Linecode=1P_OH_AL_4/0_Zuzara_0_416_0_2_2

New Line.l(r:p1ulv793-udm1486) Units=km Length=0.0274935 bus1=udm1486.1.2 bus2=p1ulv793.1.2 switch=n enabled=y phases=2 Linecode=1P_OH_AL_4/0_Zuzara_0_416_0_2_2

New Line.l(r:udm1486-udt379lv) Units=km Length=0.0143377 bus1=udt379lv.1.2 bus2=udm1486.1.2 switch=n enabled=y phases=2 Linecode=1P_OH_AL_2/0_Rucina_0_416_0_2_2

New Line.l(r:p1ulv40358-udm1488) Units=km Length=0.0208695 bus1=udm1488.1.2 bus2=p1ulv40358.1.2 switch=n enabled=y phases=2 Linecode=1P_OH_AL_2/0_Rucina_0_416_0_2_2

New Line.l(r:udm1488-udt379lv) Units=km Length=0.0179287 bus1=udt379lv.1.2 bus2=udm1488.1.2 switch=n enabled=y phases=2 Linecode=1P_OH_AL_2/0_Rucina_0_416_0_2_2

New Line.l(r:p1ulv49976-udt380lv) Units=km Length=0.015009000000000002 bus1=udt380lv.1.2 bus2=p1ulv49976.1.2 switch=n enabled=y phases=2 Linecode=1P_OH_AL_2/0_Rucina_0_416_0_2_2

New Line.l(r:p1ulv795-udm1489) Units=km Length=0.0196935 bus1=udm1489.1.2 bus2=p1ulv795.1.2 switch=n enabled=y phases=2 Linecode=1P_OH_AL_2/0_Rucina_0_416_0_2_2

New Line.l(r:udm1489-udt380lv) Units=km Length=0.0234877 bus1=udt380lv.1.2 bus2=udm1489.1.2 switch=n enabled=y phases=2 Linecode=1P_OH_AL_2/0_Rucina_0_416_0_2_2

New Line.l(r:p1ulv57546-udm1491) Units=km Length=0.0167631 bus1=udm1491.1.2 bus2=p1ulv57546.1.2 switch=n enabled=y phases=2 Linecode=1P_OH_AL_2/0_Rucina_0_416_0_2_2

New Line.l(r:udm1491-udt380lv) Units=km Length=0.0131537 bus1=udt380lv.1.2 bus2=udm1491.1.2 switch=n enabled=y phases=2 Linecode=1P_OH_AL_2/0_Rucina_0_416_0_2_2

New Line.l(r:p1ulv55105-udt381lv) Units=km Length=0.0196119 bus1=udt381lv.1.2 bus2=p1ulv55105.1.2 switch=n enabled=y phases=2 Linecode=1P_OH_AL_2/0_Rucina_0_416_0_2_2

New Line.l(r:p1ulv59861-udt381lv) Units=km Length=0.0182354 bus1=udt381lv.1.2 bus2=p1ulv59861.1.2 switch=n enabled=y phases=2 Linecode=1P_OH_AL_2/0_Rucina_0_416_0_2_2

New Line.l(r:p1ulv796-udm1492) Units=km Length=0.0201665 bus1=udm1492.1.2 bus2=p1ulv796.1.2 switch=n enabled=y phases=2 Linecode=1P_OH_AL_2/0_Rucina_0_416_0_2_2

New Line.l(r:p1ulv51629-udm1494) Units=km Length=0.01624 bus1=udm1494.1.2 bus2=p1ulv51629.1.2 switch=n enabled=y phases=2 Linecode=1P_OH_AL_2/0_Rucina_0_416_0_2_2

New Line.l(r:udm1492-udm1494) Units=km Length=0.0415116 bus1=udm1492.1.2 bus2=udm1494.1.2 switch=n enabled=y phases=2 Linecode=1P_OH_AL_4/0_Zuzara_0_416_0_2_2

New Line.l(r:udm1492-udt381lv) Units=km Length=0.017901500000000004 bus1=udt381lv.1.2 bus2=udm1492.1.2 switch=n enabled=y phases=2 Linecode=1P_OH_AL_2/0_Rucina_0_416_0_2_2

New Line.l(r:p1ulv59123-udm1496) Units=km Length=0.018762500000000005 bus1=udm1496.1.2 bus2=p1ulv59123.1.2 switch=n enabled=y phases=2 Linecode=1P_OH_AL_2/0_Rucina_0_416_0_2_2

New Line.l(r:p1ulv60538-udm1496) Units=km Length=0.0200102 bus1=udm1496.1.2 bus2=p1ulv60538.1.2 switch=n enabled=y phases=2 Linecode=1P_OH_AL_2/0_Rucina_0_416_0_2_2

New Line.l(r:p1ulv797-udm1493) Units=km Length=0.0198794 bus1=udm1493.1.2 bus2=p1ulv797.1.2 switch=n enabled=y phases=2 Linecode=1P_OH_AL_2/0_Rucina_0_416_0_2_2

New Line.l(r:udm1493-udm1496) Units=km Length=0.017901500000000004 bus1=udm1496.1.2 bus2=udm1493.1.2 switch=n enabled=y phases=2 Linecode=1P_OH_AL_2/0_Rucina_0_416_0_2_2

New Line.l(r:udm1496-udt381lv) Units=km Length=0.0179116 bus1=udt381lv.1.2 bus2=udm1496.1.2 switch=n enabled=y phases=2 Linecode=1P_OH_AL_2/0_Rucina_0_416_0_2_2

New Line.l(r:p1ulv52067-udt382lv) Units=km Length=0.0189203 bus1=udt382lv.1.2 bus2=p1ulv52067.1.2 switch=n enabled=y phases=2 Linecode=1P_OH_AL_2/0_Rucina_0_416_0_2_2

New Line.l(r:p1ulv54457-udt382lv) Units=km Length=0.0189045 bus1=udt382lv.1.2 bus2=p1ulv54457.1.2 switch=n enabled=y phases=2 Linecode=1P_OH_AL_2/0_Rucina_0_416_0_2_2

New Line.l(r:p1ulv799-udm1500) Units=km Length=0.0183102 bus1=udm1500.1.2 bus2=p1ulv799.1.2 switch=n enabled=y phases=2 Linecode=1P_OH_AL_2/0_Rucina_0_416_0_2_2

New Line.l(r:p1ulv39743-udm1500) Units=km Length=0.019451200000000002 bus1=udm1500.1.2 bus2=p1ulv39743.1.2 switch=n enabled=y phases=2 Linecode=1P_OH_AL_2/0_Rucina_0_416_0_2_2

New Line.l(r:p1ulv798-udm1499) Units=km Length=0.0177899 bus1=udm1499.1.2 bus2=p1ulv798.1.2 switch=n enabled=y phases=2 Linecode=1P_OH_AL_2/0_Rucina_0_416_0_2_2

New Line.l(r:udm1499-udm1500) Units=km Length=0.0171478 bus1=udm1500.1.2 bus2=udm1499.1.2 switch=n enabled=y phases=2 Linecode=1P_OH_AL_2/0_Rucina_0_416_0_2_2

New Line.l(r:udm1500-udt382lv) Units=km Length=0.0179115 bus1=udt382lv.1.2 bus2=udm1500.1.2 switch=n enabled=y phases=2 Linecode=1P_OH_AL_2/0_Rucina_0_416_0_2_2

New Line.l(r:p1ulv60931-udm1504) Units=km Length=0.01613 bus1=udm1504.1.2 bus2=p1ulv60931.1.2 switch=n enabled=y phases=2 Linecode=1P_OH_AL_2/0_Rucina_0_416_0_2_2

New Line.l(r:udm1504-udt382lv) Units=km Length=0.0179016 bus1=udt382lv.1.2 bus2=udm1504.1.2 switch=n enabled=y phases=2 Linecode=1P_OH_AL_2/0_Rucina_0_416_0_2_2

New Line.l(r:p1ulv801-udm1506) Units=km Length=0.0200045 bus1=udm1506.1.2 bus2=p1ulv801.1.2 switch=n enabled=y phases=2 Linecode=1P_OH_AL_2/0_Rucina_0_416_0_2_2

New Line.l(r:p1ulv51241-udm1507) Units=km Length=0.0166079 bus1=udm1507.1.2 bus2=p1ulv51241.1.2 switch=n enabled=y phases=2 Linecode=1P_OH_AL_2/0_Rucina_0_416_0_2_2

New Line.l(r:udm1506-udm1507) Units=km Length=0.017497100000000005 bus1=udm1506.1.2 bus2=udm1507.1.2 switch=n enabled=y phases=2 Linecode=1P_OH_AL_2/0_Rucina_0_416_0_2_2

New Line.l(r:udm1506-udt384lv) Units=km Length=0.0191342 bus1=udt384lv.1.2 bus2=udm1506.1.2 switch=n enabled=y phases=2 Linecode=1P_OH_AL_2/0_Rucina_0_416_0_2_2

New Line.l(r:p1ulv55752-udm1508) Units=km Length=0.0226923 bus1=udm1508.1.2 bus2=p1ulv55752.1.2 switch=n enabled=y phases=2 Linecode=1P_OH_AL_2/0_Rucina_0_416_0_2_2

New Line.l(r:udm1508-udt384lv) Units=km Length=0.046301800000000004 bus1=udt384lv.1.2 bus2=udm1508.1.2 switch=n enabled=y phases=2 Linecode=1P_OH_AL_4/0_Zuzara_0_416_0_2_2

New Line.l(r:p1ulv802-udt385lv) Units=km Length=0.0186674 bus1=udt385lv.1.2 bus2=p1ulv802.1.2 switch=n enabled=y phases=2 Linecode=1P_OH_AL_2/0_Rucina_0_416_0_2_2

New Line.l(r:p1ulv44782-udt385lv) Units=km Length=0.0198113 bus1=udt385lv.1.2 bus2=p1ulv44782.1.2 switch=n enabled=y phases=2 Linecode=1P_OH_AL_2/0_Rucina_0_416_0_2_2

New Line.l(r:p1ulv50101-udt385lv) Units=km Length=0.0405904 bus1=udt385lv.1.2 bus2=p1ulv50101.1.2 switch=n enabled=y phases=2 Linecode=1P_OH_AL_4/0_Zuzara_0_416_0_2_2

New Line.l(r:p1ulv804-udm1510) Units=km Length=0.019754200000000003 bus1=udm1510.1.2 bus2=p1ulv804.1.2 switch=n enabled=y phases=2 Linecode=1P_OH_AL_2/0_Rucina_0_416_0_2_2

New Line.l(r:p1ulv53378-udm1510) Units=km Length=0.0206714 bus1=udm1510.1.2 bus2=p1ulv53378.1.2 switch=n enabled=y phases=2 Linecode=1P_OH_AL_2/0_Rucina_0_416_0_2_2

New Line.l(r:udm1510-udt385lv) Units=km Length=0.0199 bus1=udt385lv.1.2 bus2=udm1510.1.2 switch=n enabled=y phases=2 Linecode=1P_OH_AL_2/0_Rucina_0_416_0_2_2

New Line.l(r:p1ulv54388-udm1514) Units=km Length=0.0165879 bus1=udm1514.1.2 bus2=p1ulv54388.1.2 switch=n enabled=y phases=2 Linecode=1P_OH_AL_2/0_Rucina_0_416_0_2_2

New Line.l(r:p1ulv58591-udm1514) Units=km Length=0.0225527 bus1=udm1514.1.2 bus2=p1ulv58591.1.2 switch=n enabled=y phases=2 Linecode=1P_OH_AL_2/0_Rucina_0_416_0_2_2

New Line.l(r:udm1514-udt385lv) Units=km Length=0.03982 bus1=udt385lv.1.2 bus2=udm1514.1.2 switch=n enabled=y phases=2 Linecode=1P_OH_AL_4/0_Zuzara_0_416_0_2_2

New Line.l(r:p1ulv44655-udt389lv) Units=km Length=0.0157435 bus1=udt389lv.1.2 bus2=p1ulv44655.1.2 switch=n enabled=y phases=2 Linecode=1P_UG_AL_1/0_Brenau_0_416_0_2_2

New Line.l(r:p1ulv43445-udm1521) Units=km Length=0.011763500000000001 bus1=udm1521.1.2 bus2=p1ulv43445.1.2 switch=n enabled=y phases=2 Linecode=1P_UG_AL_1/0_Brenau_0_416_0_2_2

New Line.l(r:p1ulv807-udm1519) Units=km Length=0.0212949 bus1=udm1519.1.2 bus2=p1ulv807.1.2 switch=n enabled=y phases=2 Linecode=1P_UG_AL_1/0_Brenau_0_416_0_2_2

New Line.l(r:p1ulv60596-udm1524) Units=km Length=0.015794 bus1=udm1524.1.2 bus2=p1ulv60596.1.2 switch=n enabled=y phases=2 Linecode=1P_UG_AL_1/0_Brenau_0_416_0_2_2

New Line.l(r:udm1519-udm1524) Units=km Length=0.00973375 bus1=udm1519.1.2 bus2=udm1524.1.2 switch=n enabled=y phases=2 Linecode=1P_UG_AL_1/0_Brenau_0_416_0_2_2

New Line.l(r:udm1519-udm1521) Units=km Length=0.00974347 bus1=udm1521.1.2 bus2=udm1519.1.2 switch=n enabled=y phases=2 Linecode=1P_UG_AL_1/0_Brenau_0_416_0_2_2

New Line.l(r:udm1521-udt389lv) Units=km Length=0.00974374 bus1=udt389lv.1.2 bus2=udm1521.1.2 switch=n enabled=y phases=2 Linecode=1P_UG_AL_2/0_Converse_0_416_0_2_2

New Line.l(r:p1ulv44965-udm1523) Units=km Length=0.0170213 bus1=udm1523.1.2 bus2=p1ulv44965.1.2 switch=n enabled=y phases=2 Linecode=1P_UG_AL_1/0_Brenau_0_416_0_2_2

New Line.l(r:p1ulv60692-udm1525) Units=km Length=0.0160025 bus1=udm1525.1.2 bus2=p1ulv60692.1.2 switch=n enabled=y phases=2 Linecode=1P_UG_AL_1/0_Brenau_0_416_0_2_2

New Line.l(r:p1ulv812-udm1520) Units=km Length=0.0177098 bus1=udm1520.1.2 bus2=p1ulv812.1.2 switch=n enabled=y phases=2 Linecode=1P_UG_AL_1/0_Brenau_0_416_0_2_2

New Line.l(r:udm1520-udm1525) Units=km Length=0.00922488 bus1=udm1525.1.2 bus2=udm1520.1.2 switch=n enabled=y phases=2 Linecode=1P_UG_AL_1/0_Brenau_0_416_0_2_2

New Line.l(r:udm1523-udm1525) Units=km Length=0.0194772 bus1=udm1523.1.2 bus2=udm1525.1.2 switch=n enabled=y phases=2 Linecode=1P_UG_AL_1/0_Brenau_0_416_0_2_2

New Line.l(r:udm1523-udt389lv) Units=km Length=0.00974347 bus1=udt389lv.1.2 bus2=udm1523.1.2 switch=n enabled=y phases=2 Linecode=1P_UG_AL_2/0_Converse_0_416_0_2_2

New Line.l(r:p1ulv810-udm1529) Units=km Length=0.0169424 bus1=udm1529.1.2 bus2=p1ulv810.1.2 switch=n enabled=y phases=2 Linecode=1P_OH_AL_2/0_Rucina_0_416_0_2_2

New Line.l(r:p1ulv60224-udm1531) Units=km Length=0.0197329 bus1=udm1531.1.2 bus2=p1ulv60224.1.2 switch=n enabled=y phases=2 Linecode=1P_OH_AL_2/0_Rucina_0_416_0_2_2

New Line.l(r:udm1529-udm1531) Units=km Length=0.0097243 bus1=udm1529.1.2 bus2=udm1531.1.2 switch=n enabled=y phases=2 Linecode=1P_OH_AL_2/0_Rucina_0_416_0_2_2

New Line.l(r:udm1529-udt392lv) Units=km Length=0.0129912 bus1=udt392lv.1.2 bus2=udm1529.1.2 switch=n enabled=y phases=2 Linecode=1P_OH_AL_2/0_Rucina_0_416_0_2_2

New Line.l(r:p1ulv52709-udm1530) Units=km Length=0.0223583 bus1=udm1530.1.2 bus2=p1ulv52709.1.2 switch=n enabled=y phases=2 Linecode=1P_OH_AL_2/0_Rucina_0_416_0_2_2

New Line.l(r:udm1530-udt392lv) Units=km Length=0.0311467 bus1=udt392lv.1.2 bus2=udm1530.1.2 switch=n enabled=y phases=2 Linecode=1P_OH_AL_4/0_Zuzara_0_416_0_2_2

New Line.l(r:p1ulv55513-udt394lv) Units=km Length=0.020007100000000003 bus1=udt394lv.1.2 bus2=p1ulv55513.1.2 switch=n enabled=y phases=2 Linecode=1P_OH_AL_2/0_Rucina_0_416_0_2_2

New Line.l(r:p1ulv813-udm1533) Units=km Length=0.021606000000000004 bus1=udm1533.1.2 bus2=p1ulv813.1.2 switch=n enabled=y phases=2 Linecode=1P_OH_AL_2/0_Rucina_0_416_0_2_2

New Line.l(r:p1ulv55914-udm1537) Units=km Length=0.0171472 bus1=udm1537.1.2 bus2=p1ulv55914.1.2 switch=n enabled=y phases=2 Linecode=1P_OH_AL_2/0_Rucina_0_416_0_2_2

New Line.l(r:udm1533-udm1537) Units=km Length=0.0197975 bus1=udm1533.1.2 bus2=udm1537.1.2 switch=n enabled=y phases=2 Linecode=1P_OH_AL_2/0_Rucina_0_416_0_2_2

New Line.l(r:udm1533-udt394lv) Units=km Length=0.011355700000000002 bus1=udt394lv.1.2 bus2=udm1533.1.2 switch=n enabled=y phases=2 Linecode=1P_OH_AL_2/0_Rucina_0_416_0_2_2

New Line.l(r:p1ulv40187-udm1534) Units=km Length=0.0188918 bus1=udm1534.1.2 bus2=p1ulv40187.1.2 switch=n enabled=y phases=2 Linecode=1P_OH_AL_2/0_Rucina_0_416_0_2_2

New Line.l(r:p1ulv52480-udm1534) Units=km Length=0.0142213 bus1=udm1534.1.2 bus2=p1ulv52480.1.2 switch=n enabled=y phases=2 Linecode=1P_OH_AL_2/0_Rucina_0_416_0_2_2

New Line.l(r:p1ulv58779-udm1538) Units=km Length=0.0172456 bus1=udm1538.1.2 bus2=p1ulv58779.1.2 switch=n enabled=y phases=2 Linecode=1P_OH_AL_2/0_Rucina_0_416_0_2_2

New Line.l(r:udm1534-udm1538) Units=km Length=0.0694935 bus1=udm1534.1.2 bus2=udm1538.1.2 switch=n enabled=y phases=2 Linecode=1P_OH_AL_4/0_Zuzara_0_416_0_2_2

New Line.l(r:udm1534-udt394lv) Units=km Length=0.0113657 bus1=udt394lv.1.2 bus2=udm1534.1.2 switch=n enabled=y phases=2 Linecode=1P_OH_AL_2/0_Rucina_0_416_0_2_2

New Line.l(r:p1ulv814-udm1539) Units=km Length=0.0358647 bus1=udm1539.1.2 bus2=p1ulv814.1.2 switch=n enabled=y phases=2 Linecode=1P_UG_AL_1/0_Brenau_0_416_0_2_2

New Line.l(r:p1ulv57850-udm1541) Units=km Length=0.025363 bus1=udm1541.1.2 bus2=p1ulv57850.1.2 switch=n enabled=y phases=2 Linecode=1P_UG_AL_1/0_Brenau_0_416_0_2_2

New Line.l(r:udm1539-udm1541) Units=km Length=0.0198753 bus1=udm1539.1.2 bus2=udm1541.1.2 switch=n enabled=y phases=2 Linecode=1P_UG_AL_1/0_Brenau_0_416_0_2_2

New Line.l(r:udm1539-udt395lv) Units=km Length=0.00994266 bus1=udt395lv.1.2 bus2=udm1539.1.2 switch=n enabled=y phases=2 Linecode=1P_UG_AL_1/0_Brenau_0_416_0_2_2

New Line.l(r:p1ulv54403-udm1540) Units=km Length=0.0196912 bus1=udm1540.1.2 bus2=p1ulv54403.1.2 switch=n enabled=y phases=2 Linecode=1P_UG_AL_1/0_Brenau_0_416_0_2_2

New Line.l(r:p1ulv59483-udm1542) Units=km Length=0.0192592 bus1=udm1542.1.2 bus2=p1ulv59483.1.2 switch=n enabled=y phases=2 Linecode=1P_UG_AL_1/0_Brenau_0_416_0_2_2

New Line.l(r:udm1540-udm1542) Units=km Length=0.00994243 bus1=udm1540.1.2 bus2=udm1542.1.2 switch=n enabled=y phases=2 Linecode=1P_UG_AL_1/0_Brenau_0_416_0_2_2

New Line.l(r:udm1540-udt395lv) Units=km Length=0.009932660000000001 bus1=udt395lv.1.2 bus2=udm1540.1.2 switch=n enabled=y phases=2 Linecode=1P_UG_AL_1/0_Brenau_0_416_0_2_2

New Line.l(r:p1ulv816-udm1544) Units=km Length=0.0226308 bus1=udm1544.1.2 bus2=p1ulv816.1.2 switch=n enabled=y phases=2 Linecode=1P_UG_AL_1/0_Brenau_0_416_0_2_2

New Line.l(r:p1ulv817-udm1545) Units=km Length=0.023404700000000004 bus1=udm1545.1.2 bus2=p1ulv817.1.2 switch=n enabled=y phases=2 Linecode=1P_UG_AL_1/0_Brenau_0_416_0_2_2

New Line.l(r:udm1544-udm1545) Units=km Length=0.00994266 bus1=udm1544.1.2 bus2=udm1545.1.2 switch=n enabled=y phases=2 Linecode=1P_UG_AL_1/0_Brenau_0_416_0_2_2

New Line.l(r:udm1544-udt396lv) Units=km Length=0.009932660000000001 bus1=udt396lv.1.2 bus2=udm1544.1.2 switch=n enabled=y phases=2 Linecode=1P_UG_AL_1/0_Brenau_0_416_0_2_2

New Line.l(r:p1ulv43161-udm1546) Units=km Length=0.0187943 bus1=udm1546.1.2 bus2=p1ulv43161.1.2 switch=n enabled=y phases=2 Linecode=1P_UG_AL_1/0_Brenau_0_416_0_2_2

New Line.l(r:p1ulv815-udm1543) Units=km Length=0.0255118 bus1=udm1543.1.2 bus2=p1ulv815.1.2 switch=n enabled=y phases=2 Linecode=1P_UG_AL_1/0_Brenau_0_416_0_2_2

New Line.l(r:udm1543-udm1546) Units=km Length=0.009932660000000001 bus1=udm1546.1.2 bus2=udm1543.1.2 switch=n enabled=y phases=2 Linecode=1P_UG_AL_1/0_Brenau_0_416_0_2_2

New Line.l(r:udm1546-udt396lv) Units=km Length=0.00994266 bus1=udt396lv.1.2 bus2=udm1546.1.2 switch=n enabled=y phases=2 Linecode=1P_UG_AL_1/0_Brenau_0_416_0_2_2

New Line.l(r:p1ulv818-udt397lv) Units=km Length=0.0151512 bus1=udt397lv.1.2 bus2=p1ulv818.1.2 switch=n enabled=y phases=2 Linecode=1P_OH_AL_2/0_Rucina_0_416_0_2_2

New Line.l(r:p1ulv41433-udt397lv) Units=km Length=0.011061 bus1=udt397lv.1.2 bus2=p1ulv41433.1.2 switch=n enabled=y phases=2 Linecode=1P_OH_AL_2/0_Rucina_0_416_0_2_2

New Line.l(r:p1ulv44981-udm1549) Units=km Length=0.013208 bus1=udm1549.1.2 bus2=p1ulv44981.1.2 switch=n enabled=y phases=2 Linecode=1P_OH_AL_2/0_Rucina_0_416_0_2_2

New Line.l(r:udm1549-udt397lv) Units=km Length=0.019076 bus1=udt397lv.1.2 bus2=udm1549.1.2 switch=n enabled=y phases=2 Linecode=1P_OH_AL_2/0_Rucina_0_416_0_2_2

New Line.l(r:p1ulv40308-udt398lv) Units=km Length=0.0232112 bus1=udt398lv.1.2 bus2=p1ulv40308.1.2 switch=n enabled=y phases=2 Linecode=1P_OH_AL_2/0_Rucina_0_416_0_2_2

New Line.l(r:p1ulv819-udm1550) Units=km Length=0.020276200000000005 bus1=udm1550.1.2 bus2=p1ulv819.1.2 switch=n enabled=y phases=2 Linecode=1P_OH_AL_2/0_Rucina_0_416_0_2_2

New Line.l(r:p1ulv48385-udm1550) Units=km Length=0.020916 bus1=udm1550.1.2 bus2=p1ulv48385.1.2 switch=n enabled=y phases=2 Linecode=1P_OH_AL_2/0_Rucina_0_416_0_2_2

New Line.l(r:p1ulv52902-udm1550) Units=km Length=0.0195716 bus1=udm1550.1.2 bus2=p1ulv52902.1.2 switch=n enabled=y phases=2 Linecode=1P_OH_AL_2/0_Rucina_0_416_0_2_2

New Line.l(r:p1ulv49621-udm1555) Units=km Length=0.0208048 bus1=udm1555.1.2 bus2=p1ulv49621.1.2 switch=n enabled=y phases=2 Linecode=1P_OH_AL_2/0_Rucina_0_416_0_2_2

New Line.l(r:udm1550-udm1555) Units=km Length=0.0633165 bus1=udm1550.1.2 bus2=udm1555.1.2 switch=n enabled=y phases=2 Linecode=1P_OH_AL_4/0_Zuzara_0_416_0_2_2

New Line.l(r:udm1550-udt398lv) Units=km Length=0.0197667 bus1=udt398lv.1.2 bus2=udm1550.1.2 switch=n enabled=y phases=2 Linecode=1P_OH_AL_2/0_Rucina_0_416_0_2_2

New Line.l(r:p1ulv46705-udm1552) Units=km Length=0.0188515 bus1=udm1552.1.2 bus2=p1ulv46705.1.2 switch=n enabled=y phases=2 Linecode=1P_OH_AL_2/0_Rucina_0_416_0_2_2

New Line.l(r:p1ulv54229-udm1552) Units=km Length=0.021989 bus1=udm1552.1.2 bus2=p1ulv54229.1.2 switch=n enabled=y phases=2 Linecode=1P_OH_AL_2/0_Rucina_0_416_0_2_2

New Line.l(r:p1ulv47019-udm1553) Units=km Length=0.0195839 bus1=udm1553.1.2 bus2=p1ulv47019.1.2 switch=n enabled=y phases=2 Linecode=1P_OH_AL_2/0_Rucina_0_416_0_2_2

New Line.l(r:p1ulv49921-udm1553) Units=km Length=0.0552266 bus1=udm1553.1.2 bus2=p1ulv49921.1.2 switch=n enabled=y phases=2 Linecode=1P_OH_AL_4/0_Zuzara_0_416_0_2_2

New Line.l(r:p1ulv51771-udm1557) Units=km Length=0.0264611 bus1=udm1557.1.2 bus2=p1ulv51771.1.2 switch=n enabled=y phases=2 Linecode=1P_OH_AL_2/0_Rucina_0_416_0_2_2

New Line.l(r:udm1553-udm1557) Units=km Length=0.0179401 bus1=udm1553.1.2 bus2=udm1557.1.2 switch=n enabled=y phases=2 Linecode=1P_OH_AL_2/0_Rucina_0_416_0_2_2

New Line.l(r:udm1552-udm1553) Units=km Length=0.0197569 bus1=udm1552.1.2 bus2=udm1553.1.2 switch=n enabled=y phases=2 Linecode=1P_OH_AL_2/0_Rucina_0_416_0_2_2

New Line.l(r:udm1552-udt398lv) Units=km Length=0.0197667 bus1=udt398lv.1.2 bus2=udm1552.1.2 switch=n enabled=y phases=2 Linecode=1P_OH_AL_2/0_Rucina_0_416_0_2_2

New Line.l(r:p1ulv60710-udt399lv) Units=km Length=0.0155903 bus1=udt399lv.1.2 bus2=p1ulv60710.1.2 switch=n enabled=y phases=2 Linecode=1P_OH_AL_2/0_Rucina_0_416_0_2_2

New Line.l(r:p1ulv820-udm1560) Units=km Length=0.0186711 bus1=udm1560.1.2 bus2=p1ulv820.1.2 switch=n enabled=y phases=2 Linecode=1P_OH_AL_2/0_Rucina_0_416_0_2_2

New Line.l(r:udm1560-udt399lv) Units=km Length=0.0179301 bus1=udt399lv.1.2 bus2=udm1560.1.2 switch=n enabled=y phases=2 Linecode=1P_OH_AL_2/0_Rucina_0_416_0_2_2

New Line.l(r:p1ulv53855-udm1561) Units=km Length=0.012673700000000001 bus1=udm1561.1.2 bus2=p1ulv53855.1.2 switch=n enabled=y phases=2 Linecode=1P_OH_AL_2/0_Rucina_0_416_0_2_2

New Line.l(r:udm1561-udt399lv) Units=km Length=0.0190858 bus1=udt399lv.1.2 bus2=udm1561.1.2 switch=n enabled=y phases=2 Linecode=1P_OH_AL_2/0_Rucina_0_416_0_2_2

New Line.l(r:p1ulv57724-udm1562) Units=km Length=0.015350000000000003 bus1=udm1562.1.2 bus2=p1ulv57724.1.2 switch=n enabled=y phases=2 Linecode=1P_UG_AL_1/0_Brenau_0_416_0_2_2

New Line.l(r:udm1562-udt399lv) Units=km Length=0.0191143 bus1=udt399lv.1.2 bus2=udm1562.1.2 switch=n enabled=y phases=2 Linecode=1P_OH_AL_2/0_Rucina_0_416_0_2_2

New Line.l(r:p1ulv821-udm1564) Units=km Length=0.0159498 bus1=udm1564.1.2 bus2=p1ulv821.1.2 switch=n enabled=y phases=2 Linecode=1P_UG_AL_1/0_Brenau_0_416_0_2_2

New Line.l(r:p1ulv52208-udm1564) Units=km Length=0.0162911 bus1=udm1564.1.2 bus2=p1ulv52208.1.2 switch=n enabled=y phases=2 Linecode=1P_UG_AL_1/0_Brenau_0_416_0_2_2

New Line.l(r:udm1564-udt400lv) Units=km Length=0.0078201 bus1=udt400lv.1.2 bus2=udm1564.1.2 switch=n enabled=y phases=2 Linecode=1P_UG_AL_1/0_Brenau_0_416_0_2_2

New Line.l(r:p1ulv59076-udm1566) Units=km Length=0.018307900000000002 bus1=udm1566.1.2 bus2=p1ulv59076.1.2 switch=n enabled=y phases=2 Linecode=1P_OH_AL_2/0_Rucina_0_416_0_2_2

New Line.l(r:udm1566-udt400lv) Units=km Length=0.0078201 bus1=udt400lv.1.2 bus2=udm1566.1.2 switch=n enabled=y phases=2 Linecode=1P_OH_AL_2/0_Rucina_0_416_0_2_2

New Line.l(r:p1ulv823-udt402lv) Units=km Length=0.0188788 bus1=udt402lv.1.2 bus2=p1ulv823.1.2 switch=n enabled=y phases=2 Linecode=1P_UG_AL_1/0_Brenau_0_416_0_2_2

New Line.l(r:p1ulv49688-udm1574) Units=km Length=0.0132329 bus1=udm1574.1.2 bus2=p1ulv49688.1.2 switch=n enabled=y phases=2 Linecode=1P_UG_AL_1/0_Brenau_0_416_0_2_2

New Line.l(r:udm1574-udt402lv) Units=km Length=0.00965436 bus1=udt402lv.1.2 bus2=udm1574.1.2 switch=n enabled=y phases=2 Linecode=1P_UG_AL_1/0_Brenau_0_416_0_2_2

New Line.l(r:p1ulv56671-udm1575) Units=km Length=0.0242016 bus1=udm1575.1.2 bus2=p1ulv56671.1.2 switch=n enabled=y phases=2 Linecode=1P_UG_AL_1/0_Brenau_0_416_0_2_2

New Line.l(r:udm1575-udt402lv) Units=km Length=0.019289 bus1=udt402lv.1.2 bus2=udm1575.1.2 switch=n enabled=y phases=2 Linecode=1P_UG_AL_1/0_Brenau_0_416_0_2_2

New Line.l(r:p1ulv40374-udt403lv) Units=km Length=0.0192098 bus1=udt403lv.1.2 bus2=p1ulv40374.1.2 switch=n enabled=y phases=2 Linecode=1P_UG_AL_1/0_Brenau_0_416_0_2_2

New Line.l(r:p1ulv824-udm1576) Units=km Length=0.01378 bus1=udm1576.1.2 bus2=p1ulv824.1.2 switch=n enabled=y phases=2 Linecode=1P_UG_AL_1/0_Brenau_0_416_0_2_2

New Line.l(r:udm1576-udt403lv) Units=km Length=0.0188527 bus1=udt403lv.1.2 bus2=udm1576.1.2 switch=n enabled=y phases=2 Linecode=1P_UG_AL_1/0_Brenau_0_416_0_2_2

New Line.l(r:p1ulv54292-udm1578) Units=km Length=0.0116421 bus1=udm1578.1.2 bus2=p1ulv54292.1.2 switch=n enabled=y phases=2 Linecode=1P_UG_AL_1/0_Brenau_0_416_0_2_2

New Line.l(r:udm1578-udt403lv) Units=km Length=0.0188627 bus1=udt403lv.1.2 bus2=udm1578.1.2 switch=n enabled=y phases=2 Linecode=1P_UG_AL_1/0_Brenau_0_416_0_2_2

New Line.l(r:p1ulv825-udm1579) Units=km Length=0.015911 bus1=udm1579.1.2 bus2=p1ulv825.1.2 switch=n enabled=y phases=2 Linecode=1P_UG_AL_1/0_Brenau_0_416_0_2_2

New Line.l(r:udm1579-udt404lv) Units=km Length=0.00969101 bus1=udt404lv.1.2 bus2=udm1579.1.2 switch=n enabled=y phases=2 Linecode=1P_UG_AL_1/0_Brenau_0_416_0_2_2

New Line.l(r:p1ulv48009-udm1580) Units=km Length=0.0145367 bus1=udm1580.1.2 bus2=p1ulv48009.1.2 switch=n enabled=y phases=2 Linecode=1P_UG_AL_1/0_Brenau_0_416_0_2_2

New Line.l(r:p1ulv59365-udm1580) Units=km Length=0.0177363 bus1=udm1580.1.2 bus2=p1ulv59365.1.2 switch=n enabled=y phases=2 Linecode=1P_UG_AL_1/0_Brenau_0_416_0_2_2

New Line.l(r:udm1580-udt404lv) Units=km Length=0.00968101 bus1=udt404lv.1.2 bus2=udm1580.1.2 switch=n enabled=y phases=2 Linecode=1P_UG_AL_1/0_Brenau_0_416_0_2_2

New Line.l(r:p1ulv860-udm1734) Units=km Length=0.0288457 bus1=udm1734.1.2 bus2=p1ulv860.1.2 switch=n enabled=y phases=2 Linecode=1P_OH_AL_4/0_Zuzara_0_416_0_2_2

New Line.l(r:p1ulv55712-udm1734) Units=km Length=0.0171588 bus1=udm1734.1.2 bus2=p1ulv55712.1.2 switch=n enabled=y phases=2 Linecode=1P_OH_AL_2/0_Rucina_0_416_0_2_2

New Line.l(r:p1ulv46901-udm1737) Units=km Length=0.0157788 bus1=udm1737.1.2 bus2=p1ulv46901.1.2 switch=n enabled=y phases=2 Linecode=1P_OH_AL_2/0_Rucina_0_416_0_2_2

New Line.l(r:udm1734-udm1737) Units=km Length=0.0566373 bus1=udm1734.1.2 bus2=udm1737.1.2 switch=n enabled=y phases=2 Linecode=1P_OH_AL_4/0_Zuzara_0_416_0_2_2

New Line.l(r:udm1734-udt436lv) Units=km Length=0.017366 bus1=udt436lv.1.2 bus2=udm1734.1.2 switch=n enabled=y phases=2 Linecode=1P_OH_AL_2/0_Rucina_0_416_0_2_2

New Line.l(r:p1ulv52219-udm1738) Units=km Length=0.0238563 bus1=udm1738.1.2 bus2=p1ulv52219.1.2 switch=n enabled=y phases=2 Linecode=1P_OH_AL_2/0_Rucina_0_416_0_2_2

New Line.l(r:p1ulv864-udm1735) Units=km Length=0.022949 bus1=udm1735.1.2 bus2=p1ulv864.1.2 switch=n enabled=y phases=2 Linecode=1P_OH_AL_2/0_Rucina_0_416_0_2_2

New Line.l(r:p1ulv46782-udm1735) Units=km Length=0.0178104 bus1=udm1735.1.2 bus2=p1ulv46782.1.2 switch=n enabled=y phases=2 Linecode=1P_OH_AL_2/0_Rucina_0_416_0_2_2

New Line.l(r:udm1735-udm1738) Units=km Length=0.0117619 bus1=udm1738.1.2 bus2=udm1735.1.2 switch=n enabled=y phases=2 Linecode=1P_OH_AL_2/0_Rucina_0_416_0_2_2

New Line.l(r:udm1738-udt436lv) Units=km Length=0.0117717 bus1=udt436lv.1.2 bus2=udm1738.1.2 switch=n enabled=y phases=2 Linecode=1P_OH_AL_2/0_Rucina_0_416_0_2_2

New Line.l(r:p1ulv861-udt437lv) Units=km Length=0.0297082 bus1=udt437lv.1.2 bus2=p1ulv861.1.2 switch=n enabled=y phases=2 Linecode=1P_OH_AL_4/0_Zuzara_0_416_0_2_2

New Line.l(r:p1ulv55537-udt437lv) Units=km Length=0.0288385 bus1=udt437lv.1.2 bus2=p1ulv55537.1.2 switch=n enabled=y phases=2 Linecode=1P_OH_AL_4/0_Zuzara_0_416_0_2_2

New Line.l(r:p1ulv57455-udt437lv) Units=km Length=0.028587800000000003 bus1=udt437lv.1.2 bus2=p1ulv57455.1.2 switch=n enabled=y phases=2 Linecode=1P_OH_AL_4/0_Zuzara_0_416_0_2_2

New Line.l(r:p1ulv59951-udt437lv) Units=km Length=0.0281342 bus1=udt437lv.1.2 bus2=p1ulv59951.1.2 switch=n enabled=y phases=2 Linecode=1P_OH_AL_4/0_Zuzara_0_416_0_2_2

New Line.l(r:p1ulv59662-udm1743) Units=km Length=0.0139294 bus1=udm1743.1.2 bus2=p1ulv59662.1.2 switch=n enabled=y phases=2 Linecode=1P_OH_AL_2/0_Rucina_0_416_0_2_2

New Line.l(r:udm1743-udt437lv) Units=km Length=0.071136 bus1=udt437lv.1.2 bus2=udm1743.1.2 switch=n enabled=y phases=2 Linecode=1P_OH_AL_4/0_Zuzara_0_416_0_2_2

New Line.l(r:p1ulv57391-udm1746) Units=km Length=0.0436442 bus1=udm1746.1.2 bus2=p1ulv57391.1.2 switch=n enabled=y phases=2 Linecode=1P_OH_AL_4/0_Zuzara_0_416_0_2_2

New Line.l(r:p1ulv862-udm1745) Units=km Length=0.048515 bus1=udm1745.1.2 bus2=p1ulv862.1.2 switch=n enabled=y phases=2 Linecode=1P_OH_AL_4/0_Zuzara_0_416_0_2_2

New Line.l(r:udm1745-udm1746) Units=km Length=0.0282414 bus1=udm1746.1.2 bus2=udm1745.1.2 switch=n enabled=y phases=2 Linecode=1P_OH_AL_4/0_Zuzara_0_416_0_2_2

New Line.l(r:udm1746-udt438lv) Units=km Length=0.0108473 bus1=udt438lv.1.2 bus2=udm1746.1.2 switch=n enabled=y phases=2 Linecode=1P_OH_AL_2/0_Rucina_0_416_0_2_2

New Line.l(r:p1ulv59145-udm1747) Units=km Length=0.0157677 bus1=udm1747.1.2 bus2=p1ulv59145.1.2 switch=n enabled=y phases=2 Linecode=1P_OH_AL_2/0_Rucina_0_416_0_2_2

New Line.l(r:udm1747-udt438lv) Units=km Length=0.0471052 bus1=udt438lv.1.2 bus2=udm1747.1.2 switch=n enabled=y phases=2 Linecode=1P_OH_AL_4/0_Zuzara_0_416_0_2_2

New Line.l(r:p1ulv54826-udt439lv) Units=km Length=0.0353187 bus1=udt439lv.1.2 bus2=p1ulv54826.1.2 switch=n enabled=y phases=2 Linecode=1P_OH_AL_4/0_Zuzara_0_416_0_2_2

New Line.l(r:p1ulv863-udm1748) Units=km Length=0.0284662 bus1=udm1748.1.2 bus2=p1ulv863.1.2 switch=n enabled=y phases=2 Linecode=1P_OH_AL_4/0_Zuzara_0_416_0_2_2

New Line.l(r:udm1748-udt439lv) Units=km Length=0.0318815 bus1=udt439lv.1.2 bus2=udm1748.1.2 switch=n enabled=y phases=2 Linecode=1P_OH_AL_4/0_Zuzara_0_416_0_2_2
