New Line.l(r:p1ulv418-udt273lv) Units=km Length=0.0101605 bus1=udt273lv.1.2 bus2=p1ulv418.1.2 switch=n enabled=y phases=2 Linecode=1P_OH_AL_2/0_Rucina_0_416_0_2_2

New Line.l(r:p1ulv33965-udm999) Units=km Length=0.0202982 bus1=udm999.1.2 bus2=p1ulv33965.1.2 switch=n enabled=y phases=2 Linecode=1P_OH_AL_2/0_Rucina_0_416_0_2_2

New Line.l(r:udm999-udt273lv) Units=km Length=0.0191134 bus1=udt273lv.1.2 bus2=udm999.1.2 switch=n enabled=y phases=2 Linecode=1P_OH_AL_2/0_Rucina_0_416_0_2_2

New Line.l(r:p1ulv419-udm1000) Units=km Length=0.0199201 bus1=udm1000.1.2 bus2=p1ulv419.1.2 switch=n enabled=y phases=2 Linecode=1P_OH_AL_2/0_Rucina_0_416_0_2_2

New Line.l(r:udm1000-udt274lv) Units=km Length=0.0543619 bus1=udt274lv.1.2 bus2=udm1000.1.2 switch=n enabled=y phases=2 Linecode=1P_OH_AL_4/0_Zuzara_0_416_0_2_2

New Line.l(r:p1ulv28021-udm1001) Units=km Length=0.0253458 bus1=udm1001.1.2 bus2=p1ulv28021.1.2 switch=n enabled=y phases=2 Linecode=1P_OH_AL_2/0_Rucina_0_416_0_2_2

New Line.l(r:udm1001-udt274lv) Units=km Length=0.0350292 bus1=udt274lv.1.2 bus2=udm1001.1.2 switch=n enabled=y phases=2 Linecode=1P_OH_AL_4/0_Zuzara_0_416_0_2_2

New Line.l(r:p1ulv420-udt275lv) Units=km Length=0.0140589 bus1=udt275lv.1.2 bus2=p1ulv420.1.2 switch=n enabled=y phases=2 Linecode=1P_OH_AL_2/0_Rucina_0_416_0_2_2

New Line.l(r:p1ulv426-udm1004) Units=km Length=0.0269396 bus1=udm1004.1.2 bus2=p1ulv426.1.2 switch=n enabled=y phases=2 Linecode=1P_UG_AL_1/0_Brenau_0_416_0_2_2

New Line.l(r:p1ulv421-udm1003) Units=km Length=0.013398800000000002 bus1=udm1003.1.2 bus2=p1ulv421.1.2 switch=n enabled=y phases=2 Linecode=1P_UG_AL_1/0_Brenau_0_416_0_2_2

New Line.l(r:udm1003-udm1004) Units=km Length=0.019953100000000005 bus1=udm1004.1.2 bus2=udm1003.1.2 switch=n enabled=y phases=2 Linecode=1P_UG_AL_1/0_Brenau_0_416_0_2_2

New Line.l(r:udm1004-udt276lv) Units=km Length=0.00997305 bus1=udt276lv.1.2 bus2=udm1004.1.2 switch=n enabled=y phases=2 Linecode=1P_UG_AL_2/0_Converse_0_416_0_2_2

New Line.l(r:p1ulv28166-udm1005) Units=km Length=0.0240961 bus1=udm1005.1.2 bus2=p1ulv28166.1.2 switch=n enabled=y phases=2 Linecode=1P_UG_AL_2/0_Converse_0_416_0_2_2

New Line.l(r:p1ulv32826-udm1006) Units=km Length=0.00859179 bus1=udm1006.1.2 bus2=p1ulv32826.1.2 switch=n enabled=y phases=2 Linecode=1P_UG_AL_1/0_Brenau_0_416_0_2_2

New Line.l(r:udm1005-udm1006) Units=km Length=0.00997162 bus1=udm1005.1.2 bus2=udm1006.1.2 switch=n enabled=y phases=2 Linecode=1P_UG_AL_1/0_Brenau_0_416_0_2_2

New Line.l(r:udm1005-udt276lv) Units=km Length=0.0199546 bus1=udt276lv.1.2 bus2=udm1005.1.2 switch=n enabled=y phases=2 Linecode=1P_UG_AL_4/0_Sweetbriar_0_416_0_2_2

New Line.l(r:p1ulv424-udt279lv) Units=km Length=0.042357700000000005 bus1=udt279lv.1.2 bus2=p1ulv424.1.2 switch=n enabled=y phases=2 Linecode=1P_UG_AL_4/0_Sweetbriar_0_416_0_2_2

New Line.l(r:p1ulv26364-udt279lv) Units=km Length=0.0091868 bus1=udt279lv.1.2 bus2=p1ulv26364.1.2 switch=n enabled=y phases=2 Linecode=1P_UG_AL_1/0_Brenau_0_416_0_2_2

New Line.l(r:p1ulv427-udm1017) Units=km Length=0.0105692 bus1=udm1017.1.2 bus2=p1ulv427.1.2 switch=n enabled=y phases=2 Linecode=1P_UG_AL_1/0_Brenau_0_416_0_2_2

New Line.l(r:p1ulv26884-udm1018) Units=km Length=0.0153585 bus1=udm1018.1.2 bus2=p1ulv26884.1.2 switch=n enabled=y phases=2 Linecode=1P_UG_AL_1/0_Brenau_0_416_0_2_2

New Line.l(r:udm1017-udm1018) Units=km Length=0.00945576 bus1=udm1017.1.2 bus2=udm1018.1.2 switch=n enabled=y phases=2 Linecode=1P_UG_AL_1/0_Brenau_0_416_0_2_2

New Line.l(r:udm1017-udt281lv) Units=km Length=0.00944577 bus1=udt281lv.1.2 bus2=udm1017.1.2 switch=n enabled=y phases=2 Linecode=1P_UG_AL_1/0_Brenau_0_416_0_2_2

New Line.l(r:p1ulv35163-udm1019) Units=km Length=0.00902299 bus1=udm1019.1.2 bus2=p1ulv35163.1.2 switch=n enabled=y phases=2 Linecode=1P_UG_AL_1/0_Brenau_0_416_0_2_2

New Line.l(r:p1ulv38161-udm1019) Units=km Length=0.010557200000000001 bus1=udm1019.1.2 bus2=p1ulv38161.1.2 switch=n enabled=y phases=2 Linecode=1P_UG_AL_1/0_Brenau_0_416_0_2_2

New Line.l(r:udm1019-udt281lv) Units=km Length=0.0420873 bus1=udt281lv.1.2 bus2=udm1019.1.2 switch=n enabled=y phases=2 Linecode=1P_UG_AL_1/0_Brenau_0_416_0_2_2

New Line.l(r:p1ulv428-udm1021) Units=km Length=0.0154417 bus1=udm1021.1.2 bus2=p1ulv428.1.2 switch=n enabled=y phases=2 Linecode=1P_UG_AL_1/0_Brenau_0_416_0_2_2

New Line.l(r:p1ulv11112-udm1022) Units=km Length=0.00762266 bus1=udm1022.1.2 bus2=p1ulv11112.1.2 switch=n enabled=y phases=2 Linecode=1P_UG_AL_1/0_Brenau_0_416_0_2_2

New Line.l(r:udm1021-udm1022) Units=km Length=0.037121 bus1=udm1021.1.2 bus2=udm1022.1.2 switch=n enabled=y phases=2 Linecode=1P_UG_AL_1/0_Brenau_0_416_0_2_2

New Line.l(r:udm1021-udt282lv) Units=km Length=0.00927019 bus1=udt282lv.1.2 bus2=udm1021.1.2 switch=n enabled=y phases=2 Linecode=1P_UG_AL_1/0_Brenau_0_416_0_2_2

New Line.l(r:p1ulv34416-udm1023) Units=km Length=0.016488 bus1=udm1023.1.2 bus2=p1ulv34416.1.2 switch=n enabled=y phases=2 Linecode=1P_UG_AL_1/0_Brenau_0_416_0_2_2

New Line.l(r:p1ulv34805-udm1024) Units=km Length=0.0104618 bus1=udm1024.1.2 bus2=p1ulv34805.1.2 switch=n enabled=y phases=2 Linecode=1P_UG_AL_1/0_Brenau_0_416_0_2_2

New Line.l(r:udm1023-udm1024) Units=km Length=0.0247892 bus1=udm1023.1.2 bus2=udm1024.1.2 switch=n enabled=y phases=2 Linecode=1P_UG_AL_1/0_Brenau_0_416_0_2_2

New Line.l(r:udm1023-udt282lv) Units=km Length=0.0262354 bus1=udt282lv.1.2 bus2=udm1023.1.2 switch=n enabled=y phases=2 Linecode=1P_UG_AL_1/0_Brenau_0_416_0_2_2

New Line.l(r:p1ulv1935-udt1053lv) Units=km Length=0.0297448 bus1=udt1053lv.1.2 bus2=p1ulv1935.1.2 switch=n enabled=y phases=2 Linecode=1P_OH_AL_4/0_Zuzara_0_416_0_2_2

New Line.l(r:p1ulv1936-udt1054lv) Units=km Length=0.029912900000000003 bus1=udt1054lv.1.2 bus2=p1ulv1936.1.2 switch=n enabled=y phases=2 Linecode=1P_OH_AL_4/0_Zuzara_0_416_0_2_2

New Line.l(r:p1ulv1947-udm4294) Units=km Length=0.0199587 bus1=udm4294.1.2 bus2=p1ulv1947.1.2 switch=n enabled=y phases=2 Linecode=1P_OH_AL_2/0_Rucina_0_416_0_2_2

New Line.l(r:p1ulv1948-udm4294) Units=km Length=0.0137533 bus1=udm4294.1.2 bus2=p1ulv1948.1.2 switch=n enabled=y phases=2 Linecode=1P_OH_AL_2/0_Rucina_0_416_0_2_2

New Line.l(r:udm4294-udt1057lv) Units=km Length=0.0194449 bus1=udt1057lv.1.2 bus2=udm4294.1.2 switch=n enabled=y phases=2 Linecode=1P_OH_AL_2/0_Rucina_0_416_0_2_2

New Line.l(r:p1ulv28380-udm4296) Units=km Length=0.0227595 bus1=udm4296.1.2 bus2=p1ulv28380.1.2 switch=n enabled=y phases=2 Linecode=1P_OH_AL_2/0_Rucina_0_416_0_2_2

New Line.l(r:udm4296-udt1057lv) Units=km Length=0.0185742 bus1=udt1057lv.1.2 bus2=udm4296.1.2 switch=n enabled=y phases=2 Linecode=1P_OH_AL_2/0_Rucina_0_416_0_2_2

New Line.l(r:p1ulv1949-udt1058lv) Units=km Length=0.0150187 bus1=udt1058lv.1.2 bus2=p1ulv1949.1.2 switch=n enabled=y phases=2 Linecode=1P_OH_AL_2/0_Rucina_0_416_0_2_2

New Line.l(r:p1ulv1951-udm4299) Units=km Length=0.0128105 bus1=udm4299.1.2 bus2=p1ulv1951.1.2 switch=n enabled=y phases=2 Linecode=1P_UG_AL_4/0_Sweetbriar_0_416_0_2_2

New Line.l(r:udm4299-udt1060lv) Units=km Length=0.0457366 bus1=udt1060lv.1.2 bus2=udm4299.1.2 switch=n enabled=y phases=2 Linecode=1P_UG_AL_4/0_Sweetbriar_0_416_0_2_2

New Line.l(r:p1ulv26317-udm4300) Units=km Length=0.030747400000000005 bus1=udm4300.1.2 bus2=p1ulv26317.1.2 switch=n enabled=y phases=2 Linecode=1P_UG_AL_1/0_Brenau_0_416_0_2_2

New Line.l(r:udm4300-udt1060lv) Units=km Length=0.0290858 bus1=udt1060lv.1.2 bus2=udm4300.1.2 switch=n enabled=y phases=2 Linecode=1P_UG_AL_1/0_Brenau_0_416_0_2_2

New Line.l(r:p1ulv1952-udt1061lv) Units=km Length=0.0136458 bus1=udt1061lv.1.2 bus2=p1ulv1952.1.2 switch=n enabled=y phases=2 Linecode=1P_UG_AL_4/0_Sweetbriar_0_416_0_2_2

New Line.l(r:p1ulv2011-udt1072lv) Units=km Length=0.0710784 bus1=udt1072lv.1.2 bus2=p1ulv2011.1.2 switch=n enabled=y phases=2 Linecode=1P_UG_AL_1/0_Brenau_0_416_0_2_2

New Line.l(r:p1ulv2010-udm4368) Units=km Length=0.0709755 bus1=udm4368.1.2 bus2=p1ulv2010.1.2 switch=n enabled=y phases=2 Linecode=1P_UG_AL_1/0_Brenau_0_416_0_2_2

New Line.l(r:p1ulv2021-udm4373) Units=km Length=0.073177 bus1=udm4373.1.2 bus2=p1ulv2021.1.2 switch=n enabled=y phases=2 Linecode=1P_UG_AL_1/0_Brenau_0_416_0_2_2

New Line.l(r:udm4368-udm4373) Units=km Length=0.0192704 bus1=udm4368.1.2 bus2=udm4373.1.2 switch=n enabled=y phases=2 Linecode=1P_UG_AL_1/0_Brenau_0_416_0_2_2

New Line.l(r:udm4368-udt1072lv) Units=km Length=0.00962734 bus1=udt1072lv.1.2 bus2=udm4368.1.2 switch=n enabled=y phases=2 Linecode=1P_UG_AL_1/0_Brenau_0_416_0_2_2

New Line.l(r:p1ulv2012-udm4370) Units=km Length=0.0711803 bus1=udm4370.1.2 bus2=p1ulv2012.1.2 switch=n enabled=y phases=2 Linecode=1P_UG_AL_1/0_Brenau_0_416_0_2_2

New Line.l(r:p1ulv2014-udm4371) Units=km Length=0.0712812 bus1=udm4371.1.2 bus2=p1ulv2014.1.2 switch=n enabled=y phases=2 Linecode=1P_UG_AL_1/0_Brenau_0_416_0_2_2

New Line.l(r:p1ulv2015-udm4372) Units=km Length=0.07136740000000001 bus1=udm4372.1.2 bus2=p1ulv2015.1.2 switch=n enabled=y phases=2 Linecode=1P_UG_AL_1/0_Brenau_0_416_0_2_2

New Line.l(r:udm4371-udm4372) Units=km Length=0.00963519 bus1=udm4371.1.2 bus2=udm4372.1.2 switch=n enabled=y phases=2 Linecode=1P_UG_AL_1/0_Brenau_0_416_0_2_2

New Line.l(r:udm4370-udm4371) Units=km Length=0.00963519 bus1=udm4370.1.2 bus2=udm4371.1.2 switch=n enabled=y phases=2 Linecode=1P_UG_AL_1/0_Brenau_0_416_0_2_2

New Line.l(r:udm4370-udt1072lv) Units=km Length=0.00963519 bus1=udt1072lv.1.2 bus2=udm4370.1.2 switch=n enabled=y phases=2 Linecode=1P_UG_AL_2/0_Converse_0_416_0_2_2

New Line.l(r:p1ulv2016-udt1073lv) Units=km Length=0.0420503 bus1=udt1073lv.1.2 bus2=p1ulv2016.1.2 switch=n enabled=y phases=2 Linecode=1P_UG_AL_1/0_Brenau_0_416_0_2_2

New Line.l(r:p1ulv2017-udt1073lv) Units=km Length=0.0499008 bus1=udt1073lv.1.2 bus2=p1ulv2017.1.2 switch=n enabled=y phases=2 Linecode=1P_UG_AL_1/0_Brenau_0_416_0_2_2

New Line.l(r:p1ulv2018-udt1073lv) Units=km Length=0.0563657 bus1=udt1073lv.1.2 bus2=p1ulv2018.1.2 switch=n enabled=y phases=2 Linecode=1P_UG_AL_1/0_Brenau_0_416_0_2_2

New Line.l(r:p1ulv2019-udt1073lv) Units=km Length=0.0619601 bus1=udt1073lv.1.2 bus2=p1ulv2019.1.2 switch=n enabled=y phases=2 Linecode=1P_UG_AL_1/0_Brenau_0_416_0_2_2

New Line.l(r:p1ulv2020-udt1073lv) Units=km Length=0.0680501 bus1=udt1073lv.1.2 bus2=p1ulv2020.1.2 switch=n enabled=y phases=2 Linecode=1P_UG_AL_1/0_Brenau_0_416_0_2_2

New Line.l(r:p1ulv2022-udt1073lv) Units=km Length=0.0157597 bus1=udt1073lv.1.2 bus2=p1ulv2022.1.2 switch=n enabled=y phases=2 Linecode=1P_UG_AL_1/0_Brenau_0_416_0_2_2

New Line.l(r:p1ulv2024-udt1073lv) Units=km Length=0.0162778 bus1=udt1073lv.1.2 bus2=p1ulv2024.1.2 switch=n enabled=y phases=2 Linecode=1P_UG_AL_1/0_Brenau_0_416_0_2_2

New Line.l(r:p1ulv2025-udt1073lv) Units=km Length=0.0189197 bus1=udt1073lv.1.2 bus2=p1ulv2025.1.2 switch=n enabled=y phases=2 Linecode=1P_UG_AL_1/0_Brenau_0_416_0_2_2

New Line.l(r:p1ulv2026-udt1073lv) Units=km Length=0.0228403 bus1=udt1073lv.1.2 bus2=p1ulv2026.1.2 switch=n enabled=y phases=2 Linecode=1P_UG_AL_1/0_Brenau_0_416_0_2_2

New Line.l(r:p1ulv2027-udt1073lv) Units=km Length=0.0276991 bus1=udt1073lv.1.2 bus2=p1ulv2027.1.2 switch=n enabled=y phases=2 Linecode=1P_UG_AL_1/0_Brenau_0_416_0_2_2

New Line.l(r:p1ulv51716-udm4384) Units=km Length=0.0199724 bus1=udm4384.1.2 bus2=p1ulv51716.1.2 switch=n enabled=y phases=2 Linecode=1P_OH_AL_2/0_Rucina_0_416_0_2_2

New Line.l(r:p1ulv52090-udm4385) Units=km Length=0.0126333 bus1=udm4385.1.2 bus2=p1ulv52090.1.2 switch=n enabled=y phases=2 Linecode=1P_OH_AL_2/0_Rucina_0_416_0_2_2

New Line.l(r:udm4384-udm4385) Units=km Length=0.0339475 bus1=udm4384.1.2 bus2=udm4385.1.2 switch=n enabled=y phases=2 Linecode=1P_OH_AL_4/0_Zuzara_0_416_0_2_2

New Line.l(r:udm4384-udt1073lv) Units=km Length=0.0507491 bus1=udt1073lv.1.2 bus2=udm4384.1.2 switch=n enabled=y phases=2 Linecode=1P_OH_AL_4/0_Zuzara_0_416_0_2_2

New Line.l(r:p1ulv3222-udt1473lv) Units=km Length=0.0139375 bus1=udt1473lv.1.2 bus2=p1ulv3222.1.2 switch=n enabled=y phases=2 Linecode=1P_UG_AL_1/0_Brenau_0_416_0_2_2

New Line.l(r:p1ulv53003-udt1473lv) Units=km Length=0.0150813 bus1=udt1473lv.1.2 bus2=p1ulv53003.1.2 switch=n enabled=y phases=2 Linecode=1P_UG_AL_1/0_Brenau_0_416_0_2_2

New Line.l(r:p1ulv43566-udm5983) Units=km Length=0.0317289 bus1=udm5983.1.2 bus2=p1ulv43566.1.2 switch=n enabled=y phases=2 Linecode=1P_UG_AL_1/0_Brenau_0_416_0_2_2

New Line.l(r:udm5983-udt1473lv) Units=km Length=0.00949043 bus1=udt1473lv.1.2 bus2=udm5983.1.2 switch=n enabled=y phases=2 Linecode=1P_UG_AL_1/0_Brenau_0_416_0_2_2

New Line.l(r:p1ulv3223-udt1474lv) Units=km Length=0.0191704 bus1=udt1474lv.1.2 bus2=p1ulv3223.1.2 switch=n enabled=y phases=2 Linecode=1P_OH_AL_2/0_Rucina_0_416_0_2_2

New Line.l(r:p1ulv53600-udt1474lv) Units=km Length=0.0173327 bus1=udt1474lv.1.2 bus2=p1ulv53600.1.2 switch=n enabled=y phases=2 Linecode=1P_OH_AL_2/0_Rucina_0_416_0_2_2

New Line.l(r:p1ulv3245-udm5986) Units=km Length=0.0171644 bus1=udm5986.1.2 bus2=p1ulv3245.1.2 switch=n enabled=y phases=2 Linecode=1P_OH_AL_2/0_Rucina_0_416_0_2_2

New Line.l(r:p1ulv61045-udm5986) Units=km Length=0.0101205 bus1=udm5986.1.2 bus2=p1ulv61045.1.2 switch=n enabled=y phases=2 Linecode=1P_OH_AL_2/0_Rucina_0_416_0_2_2

New Line.l(r:p1ulv57292-udm5989) Units=km Length=0.0123287 bus1=udm5989.1.2 bus2=p1ulv57292.1.2 switch=n enabled=y phases=2 Linecode=1P_OH_AL_2/0_Rucina_0_416_0_2_2

New Line.l(r:udm5986-udm5989) Units=km Length=0.035733100000000004 bus1=udm5986.1.2 bus2=udm5989.1.2 switch=n enabled=y phases=2 Linecode=1P_OH_AL_4/0_Zuzara_0_416_0_2_2

New Line.l(r:udm5986-udt1474lv) Units=km Length=0.017875000000000002 bus1=udt1474lv.1.2 bus2=udm5986.1.2 switch=n enabled=y phases=2 Linecode=1P_OH_AL_2/0_Rucina_0_416_0_2_2

New Line.l(r:p1ulv55673-udm5988) Units=km Length=0.0191226 bus1=udm5988.1.2 bus2=p1ulv55673.1.2 switch=n enabled=y phases=2 Linecode=1P_OH_AL_2/0_Rucina_0_416_0_2_2

New Line.l(r:p1ulv60460-udm5990) Units=km Length=0.0207703 bus1=udm5990.1.2 bus2=p1ulv60460.1.2 switch=n enabled=y phases=2 Linecode=1P_OH_AL_2/0_Rucina_0_416_0_2_2

New Line.l(r:udm5988-udm5990) Units=km Length=0.0178677 bus1=udm5988.1.2 bus2=udm5990.1.2 switch=n enabled=y phases=2 Linecode=1P_OH_AL_2/0_Rucina_0_416_0_2_2

New Line.l(r:udm5988-udt1474lv) Units=km Length=0.0178653 bus1=udt1474lv.1.2 bus2=udm5988.1.2 switch=n enabled=y phases=2 Linecode=1P_OH_AL_2/0_Rucina_0_416_0_2_2

New Line.l(r:p1ulv3228-udm6004) Units=km Length=0.0142266 bus1=udm6004.1.2 bus2=p1ulv3228.1.2 switch=n enabled=y phases=2 Linecode=1P_UG_AL_1/0_Brenau_0_416_0_2_2

New Line.l(r:p1ulv3246-udm6004) Units=km Length=0.0203487 bus1=udm6004.1.2 bus2=p1ulv3246.1.2 switch=n enabled=y phases=2 Linecode=1P_UG_AL_1/0_Brenau_0_416_0_2_2

New Line.l(r:p1ulv3248-udm6006) Units=km Length=0.0223067 bus1=udm6006.1.2 bus2=p1ulv3248.1.2 switch=n enabled=y phases=2 Linecode=1P_UG_AL_1/0_Brenau_0_416_0_2_2

New Line.l(r:p1ulv50088-udm6006) Units=km Length=0.0148706 bus1=udm6006.1.2 bus2=p1ulv50088.1.2 switch=n enabled=y phases=2 Linecode=1P_UG_AL_1/0_Brenau_0_416_0_2_2

New Line.l(r:udm6004-udm6006) Units=km Length=0.0192704 bus1=udm6004.1.2 bus2=udm6006.1.2 switch=n enabled=y phases=2 Linecode=1P_UG_AL_1/0_Brenau_0_416_0_2_2

New Line.l(r:udm6004-udt1478lv) Units=km Length=0.00962734 bus1=udt1478lv.1.2 bus2=udm6004.1.2 switch=n enabled=y phases=2 Linecode=1P_UG_AL_4/0_Sweetbriar_0_416_0_2_2

New Line.l(r:p1ulv52694-udm6008) Units=km Length=0.0167692 bus1=udm6008.1.2 bus2=p1ulv52694.1.2 switch=n enabled=y phases=2 Linecode=1P_UG_AL_1/0_Brenau_0_416_0_2_2

New Line.l(r:p1ulv57356-udm6008) Units=km Length=0.0151733 bus1=udm6008.1.2 bus2=p1ulv57356.1.2 switch=n enabled=y phases=2 Linecode=1P_UG_AL_1/0_Brenau_0_416_0_2_2

New Line.l(r:udm6008-udt1478lv) Units=km Length=0.0475775 bus1=udt1478lv.1.2 bus2=udm6008.1.2 switch=n enabled=y phases=2 Linecode=1P_UG_AL_1/0_Brenau_0_416_0_2_2

New Line.l(r:p1ulv58374-udt1479lv) Units=km Length=0.0225831 bus1=udt1479lv.1.2 bus2=p1ulv58374.1.2 switch=n enabled=y phases=2 Linecode=1P_UG_AL_1/0_Brenau_0_416_0_2_2

New Line.l(r:p1ulv55877-udm6012) Units=km Length=0.024140700000000005 bus1=udm6012.1.2 bus2=p1ulv55877.1.2 switch=n enabled=y phases=2 Linecode=1P_UG_AL_1/0_Brenau_0_416_0_2_2

New Line.l(r:p1ulv44928-udm6011) Units=km Length=0.019877 bus1=udm6011.1.2 bus2=p1ulv44928.1.2 switch=n enabled=y phases=2 Linecode=1P_UG_AL_1/0_Brenau_0_416_0_2_2

New Line.l(r:udm6011-udm6012) Units=km Length=0.03498 bus1=udm6012.1.2 bus2=udm6011.1.2 switch=n enabled=y phases=2 Linecode=1P_UG_AL_1/0_Brenau_0_416_0_2_2

New Line.l(r:udm6012-udt1479lv) Units=km Length=0.0192704 bus1=udt1479lv.1.2 bus2=udm6012.1.2 switch=n enabled=y phases=2 Linecode=1P_UG_AL_1/0_Brenau_0_416_0_2_2

New Line.l(r:p1ulv58272-udm6014) Units=km Length=0.0154459 bus1=udm6014.1.2 bus2=p1ulv58272.1.2 switch=n enabled=y phases=2 Linecode=1P_UG_AL_1/0_Brenau_0_416_0_2_2

New Line.l(r:p1ulv58233-udm6013) Units=km Length=0.0209143 bus1=udm6013.1.2 bus2=p1ulv58233.1.2 switch=n enabled=y phases=2 Linecode=1P_UG_AL_1/0_Brenau_0_416_0_2_2

New Line.l(r:p1ulv3230-udm6010) Units=km Length=0.0148638 bus1=udm6010.1.2 bus2=p1ulv3230.1.2 switch=n enabled=y phases=2 Linecode=1P_UG_AL_1/0_Brenau_0_416_0_2_2

New Line.l(r:udm6010-udm6013) Units=km Length=0.00963519 bus1=udm6013.1.2 bus2=udm6010.1.2 switch=n enabled=y phases=2 Linecode=1P_UG_AL_1/0_Brenau_0_416_0_2_2

New Line.l(r:udm6013-udm6014) Units=km Length=0.00962538 bus1=udm6014.1.2 bus2=udm6013.1.2 switch=n enabled=y phases=2 Linecode=1P_UG_AL_2/0_Converse_0_416_0_2_2

New Line.l(r:udm6014-udt1479lv) Units=km Length=0.00963715 bus1=udt1479lv.1.2 bus2=udm6014.1.2 switch=n enabled=y phases=2 Linecode=1P_UG_AL_4/0_Sweetbriar_0_416_0_2_2

New Line.l(r:p1ulv3235-udt1482lv) Units=km Length=0.0155455 bus1=udt1482lv.1.2 bus2=p1ulv3235.1.2 switch=n enabled=y phases=2 Linecode=1P_UG_AL_1/0_Brenau_0_416_0_2_2

New Line.l(r:p1ulv53253-udm6024) Units=km Length=0.0158852 bus1=udm6024.1.2 bus2=p1ulv53253.1.2 switch=n enabled=y phases=2 Linecode=1P_UG_AL_1/0_Brenau_0_416_0_2_2

New Line.l(r:udm6024-udt1482lv) Units=km Length=0.0199584 bus1=udt1482lv.1.2 bus2=udm6024.1.2 switch=n enabled=y phases=2 Linecode=1P_UG_AL_1/0_Brenau_0_416_0_2_2

New Line.l(r:p1ulv58885-udm6026) Units=km Length=0.015867 bus1=udm6026.1.2 bus2=p1ulv58885.1.2 switch=n enabled=y phases=2 Linecode=1P_UG_AL_4/0_Sweetbriar_0_416_0_2_2

New Line.l(r:p1ulv55345-udm6025) Units=km Length=0.0160662 bus1=udm6025.1.2 bus2=p1ulv55345.1.2 switch=n enabled=y phases=2 Linecode=1P_UG_AL_1/0_Brenau_0_416_0_2_2

New Line.l(r:udm6025-udm6026) Units=km Length=0.00997918 bus1=udm6026.1.2 bus2=udm6025.1.2 switch=n enabled=y phases=2 Linecode=1P_UG_AL_1/0_Brenau_0_416_0_2_2

New Line.l(r:udm6026-udt1482lv) Units=km Length=0.0099694 bus1=udt1482lv.1.2 bus2=udm6026.1.2 switch=n enabled=y phases=2 Linecode=1P_UG_AL_4/0_Sweetbriar_0_416_0_2_2

New Line.l(r:p1ulv3240-udt1483lv) Units=km Length=0.0868078 bus1=udt1483lv.1.2 bus2=p1ulv3240.1.2 switch=n enabled=y phases=2 Linecode=1P_OH_AL_4/0_Zuzara_0_416_0_2_2

New Line.l(r:p1ulv3236-udm6027) Units=km Length=0.088995 bus1=udm6027.1.2 bus2=p1ulv3236.1.2 switch=n enabled=y phases=2 Linecode=1P_OH_AL_4/0_Zuzara_0_416_0_2_2

New Line.l(r:p1ulv3242-udm6027) Units=km Length=0.08013470000000002 bus1=udm6027.1.2 bus2=p1ulv3242.1.2 switch=n enabled=y phases=2 Linecode=1P_OH_AL_4/0_Zuzara_0_416_0_2_2

New Line.l(r:udm6027-udt1483lv) Units=km Length=0.0316032 bus1=udt1483lv.1.2 bus2=udm6027.1.2 switch=n enabled=y phases=2 Linecode=1P_OH_AL_4/0_Zuzara_0_416_0_2_2

New Line.l(r:p1ulv3237-udm6030) Units=km Length=0.0161461 bus1=udm6030.1.2 bus2=p1ulv3237.1.2 switch=n enabled=y phases=2 Linecode=1P_UG_AL_1/0_Brenau_0_416_0_2_2

New Line.l(r:udm6030-udt1484lv) Units=km Length=0.00962972 bus1=udt1484lv.1.2 bus2=udm6030.1.2 switch=n enabled=y phases=2 Linecode=1P_UG_AL_1/0_Brenau_0_416_0_2_2

New Line.l(r:p1ulv58525-udm6031) Units=km Length=0.016261000000000005 bus1=udm6031.1.2 bus2=p1ulv58525.1.2 switch=n enabled=y phases=2 Linecode=1P_UG_AL_1/0_Brenau_0_416_0_2_2

New Line.l(r:udm6031-udt1484lv) Units=km Length=0.00962786 bus1=udt1484lv.1.2 bus2=udm6031.1.2 switch=n enabled=y phases=2 Linecode=1P_UG_AL_1/0_Brenau_0_416_0_2_2

New Line.l(r:p1ulv3238-udt1485lv) Units=km Length=0.0179635 bus1=udt1485lv.1.2 bus2=p1ulv3238.1.2 switch=n enabled=y phases=2 Linecode=1P_UG_AL_1/0_Brenau_0_416_0_2_2

New Line.l(r:p1ulv48424-udt1485lv) Units=km Length=0.0164446 bus1=udt1485lv.1.2 bus2=p1ulv48424.1.2 switch=n enabled=y phases=2 Linecode=1P_UG_AL_1/0_Brenau_0_416_0_2_2

New Line.l(r:p1ulv56082-udt1485lv) Units=km Length=0.0168958 bus1=udt1485lv.1.2 bus2=p1ulv56082.1.2 switch=n enabled=y phases=2 Linecode=1P_UG_AL_1/0_Brenau_0_416_0_2_2

New Line.l(r:p1ulv59047-udt1485lv) Units=km Length=0.0383141 bus1=udt1485lv.1.2 bus2=p1ulv59047.1.2 switch=n enabled=y phases=2 Linecode=1P_UG_AL_1/0_Brenau_0_416_0_2_2

New Line.l(r:p1ulv41583-udm6033) Units=km Length=0.016362 bus1=udm6033.1.2 bus2=p1ulv41583.1.2 switch=n enabled=y phases=2 Linecode=1P_UG_AL_1/0_Brenau_0_416_0_2_2

New Line.l(r:p1ulv56952-udm6037) Units=km Length=0.0166354 bus1=udm6037.1.2 bus2=p1ulv56952.1.2 switch=n enabled=y phases=2 Linecode=1P_UG_AL_1/0_Brenau_0_416_0_2_2

New Line.l(r:udm6033-udm6037) Units=km Length=0.04987840000000001 bus1=udm6033.1.2 bus2=udm6037.1.2 switch=n enabled=y phases=2 Linecode=1P_UG_AL_1/0_Brenau_0_416_0_2_2

New Line.l(r:udm6033-udt1485lv) Units=km Length=0.019133900000000002 bus1=udt1485lv.1.2 bus2=udm6033.1.2 switch=n enabled=y phases=2 Linecode=1P_UG_AL_1/0_Brenau_0_416_0_2_2

New Line.l(r:p1ulv42060-udm6034) Units=km Length=0.0173139 bus1=udm6034.1.2 bus2=p1ulv42060.1.2 switch=n enabled=y phases=2 Linecode=1P_UG_AL_1/0_Brenau_0_416_0_2_2

New Line.l(r:p1ulv59782-udm6039) Units=km Length=0.0127298 bus1=udm6039.1.2 bus2=p1ulv59782.1.2 switch=n enabled=y phases=2 Linecode=1P_UG_AL_1/0_Brenau_0_416_0_2_2

New Line.l(r:udm6034-udm6039) Units=km Length=0.00916259 bus1=udm6034.1.2 bus2=udm6039.1.2 switch=n enabled=y phases=2 Linecode=1P_UG_AL_1/0_Brenau_0_416_0_2_2

New Line.l(r:udm6034-udt1485lv) Units=km Length=0.0366463 bus1=udt1485lv.1.2 bus2=udm6034.1.2 switch=n enabled=y phases=2 Linecode=1P_UG_AL_1/0_Brenau_0_416_0_2_2

New Line.l(r:p1ulv55031-udt1487lv) Units=km Length=0.0152279 bus1=udt1487lv.1.2 bus2=p1ulv55031.1.2 switch=n enabled=y phases=2 Linecode=1P_OH_AL_2/0_Rucina_0_416_0_2_2

New Line.l(r:p1ulv3241-udm6042) Units=km Length=0.0168405 bus1=udm6042.1.2 bus2=p1ulv3241.1.2 switch=n enabled=y phases=2 Linecode=1P_OH_AL_2/0_Rucina_0_416_0_2_2

New Line.l(r:udm6042-udt1487lv) Units=km Length=0.035733100000000004 bus1=udt1487lv.1.2 bus2=udm6042.1.2 switch=n enabled=y phases=2 Linecode=1P_OH_AL_4/0_Zuzara_0_416_0_2_2

New Line.l(r:p1ulv43538-udm6043) Units=km Length=0.010251300000000001 bus1=udm6043.1.2 bus2=p1ulv43538.1.2 switch=n enabled=y phases=2 Linecode=1P_OH_AL_2/0_Rucina_0_416_0_2_2

New Line.l(r:udm6043-udt1487lv) Units=km Length=0.0711506 bus1=udt1487lv.1.2 bus2=udm6043.1.2 switch=n enabled=y phases=2 Linecode=1P_OH_AL_4/0_Zuzara_0_416_0_2_2

New Line.l(r:p1ulv43129-udt1488lv) Units=km Length=0.0174918 bus1=udt1488lv.1.2 bus2=p1ulv43129.1.2 switch=n enabled=y phases=2 Linecode=1P_UG_AL_1/0_Brenau_0_416_0_2_2

New Line.l(r:p1ulv41910-udm6047) Units=km Length=0.0369174 bus1=udm6047.1.2 bus2=p1ulv41910.1.2 switch=n enabled=y phases=2 Linecode=1P_UG_AL_1/0_Brenau_0_416_0_2_2

New Line.l(r:p1ulv52590-udm6047) Units=km Length=0.0167447 bus1=udm6047.1.2 bus2=p1ulv52590.1.2 switch=n enabled=y phases=2 Linecode=1P_UG_AL_1/0_Brenau_0_416_0_2_2

New Line.l(r:p1ulv3243-udm6045) Units=km Length=0.0169655 bus1=udm6045.1.2 bus2=p1ulv3243.1.2 switch=n enabled=y phases=2 Linecode=1P_UG_AL_1/0_Brenau_0_416_0_2_2

New Line.l(r:p1ulv39860-udm6045) Units=km Length=0.0161006 bus1=udm6045.1.2 bus2=p1ulv39860.1.2 switch=n enabled=y phases=2 Linecode=1P_UG_AL_1/0_Brenau_0_416_0_2_2

New Line.l(r:udm6045-udm6047) Units=km Length=0.00997918 bus1=udm6047.1.2 bus2=udm6045.1.2 switch=n enabled=y phases=2 Linecode=1P_UG_AL_1/0_Brenau_0_416_0_2_2

New Line.l(r:udm6047-udt1488lv) Units=km Length=0.00998127 bus1=udt1488lv.1.2 bus2=udm6047.1.2 switch=n enabled=y phases=2 Linecode=1P_UG_AL_4/0_Sweetbriar_0_416_0_2_2

New Line.l(r:p1ulv56386-udm6050) Units=km Length=0.0172184 bus1=udm6050.1.2 bus2=p1ulv56386.1.2 switch=n enabled=y phases=2 Linecode=1P_UG_AL_1/0_Brenau_0_416_0_2_2

New Line.l(r:p1ulv59453-udm6052) Units=km Length=0.0167721 bus1=udm6052.1.2 bus2=p1ulv59453.1.2 switch=n enabled=y phases=2 Linecode=1P_UG_AL_1/0_Brenau_0_416_0_2_2

New Line.l(r:p1ulv56643-udm6051) Units=km Length=0.016236400000000005 bus1=udm6051.1.2 bus2=p1ulv56643.1.2 switch=n enabled=y phases=2 Linecode=1P_UG_AL_1/0_Brenau_0_416_0_2_2

New Line.l(r:udm6051-udm6052) Units=km Length=0.0199486 bus1=udm6052.1.2 bus2=udm6051.1.2 switch=n enabled=y phases=2 Linecode=1P_UG_AL_1/0_Brenau_0_416_0_2_2

New Line.l(r:udm6050-udm6052) Units=km Length=0.00997918 bus1=udm6050.1.2 bus2=udm6052.1.2 switch=n enabled=y phases=2 Linecode=1P_UG_AL_1/0_Brenau_0_416_0_2_2

New Line.l(r:udm6050-udt1488lv) Units=km Length=0.0199486 bus1=udt1488lv.1.2 bus2=udm6050.1.2 switch=n enabled=y phases=2 Linecode=1P_UG_AL_2/0_Converse_0_416_0_2_2

New Line.l(r:p1ulv3803-udm7055) Units=km Length=0.00985489 bus1=udm7055.1.2 bus2=p1ulv3803.1.2 switch=n enabled=y phases=2 Linecode=1P_UG_AL_1/0_Brenau_0_416_0_2_2

New Line.l(r:udm7055-udt1794lv) Units=km Length=0.00926193 bus1=udt1794lv.1.2 bus2=udm7055.1.2 switch=n enabled=y phases=2 Linecode=1P_UG_AL_1/0_Brenau_0_416_0_2_2

New Line.l(r:p1ulv3804-udm7056) Units=km Length=0.0193303 bus1=udm7056.1.2 bus2=p1ulv3804.1.2 switch=n enabled=y phases=2 Linecode=1P_UG_AL_4/0_Sweetbriar_0_416_0_2_2

New Line.l(r:p1ulv27340-udm7056) Units=km Length=0.00490874 bus1=udm7056.1.2 bus2=p1ulv27340.1.2 switch=n enabled=y phases=2 Linecode=1P_UG_AL_1/0_Brenau_0_416_0_2_2

New Line.l(r:udm7056-udt1794lv) Units=km Length=0.00927192 bus1=udt1794lv.1.2 bus2=udm7056.1.2 switch=n enabled=y phases=2 Linecode=1P_UG_AL_4/0_Sweetbriar_0_416_0_2_2

New Line.l(r:p1ulv3805-udt1795lv) Units=km Length=0.0117238 bus1=udt1795lv.1.2 bus2=p1ulv3805.1.2 switch=n enabled=y phases=2 Linecode=1P_UG_AL_1/0_Brenau_0_416_0_2_2

New Line.l(r:p1ulv31631-udt1795lv) Units=km Length=0.028748800000000005 bus1=udt1795lv.1.2 bus2=p1ulv31631.1.2 switch=n enabled=y phases=2 Linecode=1P_UG_AL_1/0_Brenau_0_416_0_2_2

New Line.l(r:p1ulv11119-udm7059) Units=km Length=0.00894162 bus1=udm7059.1.2 bus2=p1ulv11119.1.2 switch=n enabled=y phases=2 Linecode=1P_UG_AL_1/0_Brenau_0_416_0_2_2

New Line.l(r:p1ulv38834-udm7059) Units=km Length=0.0163198 bus1=udm7059.1.2 bus2=p1ulv38834.1.2 switch=n enabled=y phases=2 Linecode=1P_UG_AL_4/0_Sweetbriar_0_416_0_2_2

New Line.l(r:udm7059-udt1795lv) Units=km Length=0.00926193 bus1=udt1795lv.1.2 bus2=udm7059.1.2 switch=n enabled=y phases=2 Linecode=1P_UG_AL_4/0_Sweetbriar_0_416_0_2_2

New Line.l(r:p1ulv3809-udt1798lv) Units=km Length=0.0325818 bus1=udt1798lv.1.2 bus2=p1ulv3809.1.2 switch=n enabled=y phases=2 Linecode=1P_UG_AL_1/0_Brenau_0_416_0_2_2

New Line.l(r:p1ulv3810-udt1799lv) Units=km Length=0.013293 bus1=udt1799lv.1.2 bus2=p1ulv3810.1.2 switch=n enabled=y phases=2 Linecode=1P_OH_AL_2/0_Rucina_0_416_0_2_2

New Line.l(r:p1ulv3812-udm7067) Units=km Length=0.0135591 bus1=udm7067.1.2 bus2=p1ulv3812.1.2 switch=n enabled=y phases=2 Linecode=1P_OH_AL_2/0_Rucina_0_416_0_2_2

New Line.l(r:udm7067-udt1799lv) Units=km Length=0.0173188 bus1=udt1799lv.1.2 bus2=udm7067.1.2 switch=n enabled=y phases=2 Linecode=1P_OH_AL_2/0_Rucina_0_416_0_2_2

New Line.l(r:p1ulv3811-udt1800lv) Units=km Length=0.00874311 bus1=udt1800lv.1.2 bus2=p1ulv3811.1.2 switch=n enabled=y phases=2 Linecode=1P_UG_AL_1/0_Brenau_0_416_0_2_2

New Line.l(r:p1ulv26944-udm7069) Units=km Length=0.010872 bus1=udm7069.1.2 bus2=p1ulv26944.1.2 switch=n enabled=y phases=2 Linecode=1P_UG_AL_2/0_Converse_0_416_0_2_2

New Line.l(r:udm7069-udt1800lv) Units=km Length=0.0187875 bus1=udt1800lv.1.2 bus2=udm7069.1.2 switch=n enabled=y phases=2 Linecode=1P_UG_AL_2/0_Converse_0_416_0_2_2

New Line.l(r:p1ulv31251-udm7070) Units=km Length=0.00955278 bus1=udm7070.1.2 bus2=p1ulv31251.1.2 switch=n enabled=y phases=2 Linecode=1P_UG_AL_2/0_Converse_0_416_0_2_2

New Line.l(r:udm7070-udt1800lv) Units=km Length=0.0242925 bus1=udt1800lv.1.2 bus2=udm7070.1.2 switch=n enabled=y phases=2 Linecode=1P_UG_AL_2/0_Converse_0_416_0_2_2

New Line.l(r:p1ulv42787-udt2117lv) Units=km Length=0.0127437 bus1=udt2117lv.1.2 bus2=p1ulv42787.1.2 switch=n enabled=y phases=2 Linecode=1P_OH_AL_2/0_Rucina_0_416_0_2_2

New Line.l(r:p1ulv29649-udm8488) Units=km Length=0.0126318 bus1=udm8488.1.2 bus2=p1ulv29649.1.2 switch=n enabled=y phases=2 Linecode=1P_OH_AL_2/0_Rucina_0_416_0_2_2

New Line.l(r:p1ulv28971-udm8487) Units=km Length=0.0137163 bus1=udm8487.1.2 bus2=p1ulv28971.1.2 switch=n enabled=y phases=2 Linecode=1P_OH_AL_2/0_Rucina_0_416_0_2_2

New Line.l(r:p1ulv35027-udm8487) Units=km Length=0.011471 bus1=udm8487.1.2 bus2=p1ulv35027.1.2 switch=n enabled=y phases=2 Linecode=1P_OH_AL_2/0_Rucina_0_416_0_2_2

New Line.l(r:p1ulv4737-udm8486) Units=km Length=0.0125992 bus1=udm8486.1.2 bus2=p1ulv4737.1.2 switch=n enabled=y phases=2 Linecode=1P_OH_AL_2/0_Rucina_0_416_0_2_2

New Line.l(r:udm8486-udm8487) Units=km Length=0.0178349 bus1=udm8487.1.2 bus2=udm8486.1.2 switch=n enabled=y phases=2 Linecode=1P_OH_AL_2/0_Rucina_0_416_0_2_2

New Line.l(r:udm8487-udm8488) Units=km Length=0.017825 bus1=udm8488.1.2 bus2=udm8487.1.2 switch=n enabled=y phases=2 Linecode=1P_OH_AL_2/0_Rucina_0_416_0_2_2

New Line.l(r:udm8488-udt2117lv) Units=km Length=0.0178349 bus1=udt2117lv.1.2 bus2=udm8488.1.2 switch=n enabled=y phases=2 Linecode=1P_OH_AL_2/0_Rucina_0_416_0_2_2

New Line.l(r:p1ulv47062-udm8493) Units=km Length=0.0132576 bus1=udm8493.1.2 bus2=p1ulv47062.1.2 switch=n enabled=y phases=2 Linecode=1P_OH_AL_2/0_Rucina_0_416_0_2_2

New Line.l(r:p1ulv33457-udm8489) Units=km Length=0.017237 bus1=udm8489.1.2 bus2=p1ulv33457.1.2 switch=n enabled=y phases=2 Linecode=1P_OH_AL_2/0_Rucina_0_416_0_2_2
