New Load.load_p1ulv1659 conn=wye bus1=p1ulv1659.1.2 kV=0.2080002494301389 Vminpu=0.8 Vmaxpu=1.2 model=1 kW=11.65 kvar=0.8405276287025704 Phases=2

New Load.load_p1ulv1662 conn=wye bus1=p1ulv1662.1.2 kV=0.2080002494301389 Vminpu=0.8 Vmaxpu=1.2 model=1 kW=11.31 kvar=0.769665394243948 Phases=2

New Load.load_p1ulv4810 conn=wye bus1=p1ulv4810.1.2 kV=0.2080002494301389 Vminpu=0.8 Vmaxpu=1.2 model=1 kW=12.05 kvar=0.9191546616517607 Phases=2

New Load.load_p1ulv4811 conn=wye bus1=p1ulv4811.1.2 kV=0.2080002494301389 Vminpu=0.8 Vmaxpu=1.2 model=1 kW=5.04005 kvar=1.0207856490641993 Phases=2

New Load.load_p1ulv4812 conn=wye bus1=p1ulv4812.1.2 kV=0.2080002494301389 Vminpu=0.8 Vmaxpu=1.2 model=1 kW=12.9501 kvar=1.109528303846426 Phases=2

New Load.load_p1ulv4813 conn=wye bus1=p1ulv4813.1.2 kV=0.2080002494301389 Vminpu=0.8 Vmaxpu=1.2 model=1 kW=16.6301 kvar=1.849161188215306 Phases=2

New Load.load_p1ulv4814 conn=wye bus1=p1ulv4814.1.2 kV=0.2080002494301389 Vminpu=0.8 Vmaxpu=1.2 model=1 kW=12.94 kvar=1.0989433780109366 Phases=2

New Load.load_p1ulv4815 conn=wye bus1=p1ulv4815.1.2 kV=0.2080002494301389 Vminpu=0.8 Vmaxpu=1.2 model=1 kW=5.27005 kvar=1.0701292944742342 Phases=2

New Load.load_p1ulv4816 conn=wye bus1=p1ulv4816.1.2 kV=0.2080002494301389 Vminpu=0.8 Vmaxpu=1.2 model=1 kW=7.41007 kvar=1.5007972370435119 Phases=2

New Load.load_p1ulv4817 conn=wye bus1=p1ulv4817.1.2 kV=0.2080002494301389 Vminpu=0.8 Vmaxpu=1.2 model=1 kW=3.17003 kvar=0.6403771062023346 Phases=2

New Load.load_p1ulv4818 conn=wye bus1=p1ulv4818.1.2 kV=0.2080002494301389 Vminpu=0.8 Vmaxpu=1.2 model=1 kW=12.5601 kvar=1.030131593999708 Phases=2

New Load.load_p1ulv4819 conn=wye bus1=p1ulv4819.1.2 kV=0.2080002494301389 Vminpu=0.8 Vmaxpu=1.2 model=1 kW=13.2801 kvar=1.1706634455471703 Phases=2

New Load.load_p1ulv4820 conn=wye bus1=p1ulv4820.1.2 kV=0.2080002494301389 Vminpu=0.8 Vmaxpu=1.2 model=1 kW=12.9001 kvar=1.0993492384814623 Phases=2

New Load.load_p1ulv4821 conn=wye bus1=p1ulv4821.1.2 kV=0.2080002494301389 Vminpu=0.8 Vmaxpu=1.2 model=1 kW=11.95 kvar=0.898951662187625 Phases=2

New Load.load_p1ulv4823 conn=wye bus1=p1ulv4823.1.2 kV=0.2080002494301389 Vminpu=0.8 Vmaxpu=1.2 model=1 kW=6.60007 kvar=1.3402013742906727 Phases=2

New Load.load_p1ulv4824 conn=wye bus1=p1ulv4824.1.2 kV=0.2080002494301389 Vminpu=0.8 Vmaxpu=1.2 model=1 kW=10.99 kvar=0.7105048699136965 Phases=2

New Load.load_p1ulv4825 conn=wye bus1=p1ulv4825.1.2 kV=0.2080002494301389 Vminpu=0.8 Vmaxpu=1.2 model=1 kW=13.2901 kvar=1.1787479841412536 Phases=2

New Load.load_p1ulv4826 conn=wye bus1=p1ulv4826.1.2 kV=0.2080002494301389 Vminpu=0.8 Vmaxpu=1.2 model=1 kW=11.79 kvar=0.8711297764663039 Phases=2

New Load.load_p1ulv4827 conn=wye bus1=p1ulv4827.1.2 kV=0.2080002494301389 Vminpu=0.8 Vmaxpu=1.2 model=1 kW=11.18 kvar=0.7491873541136322 Phases=2

New Load.load_p1ulv4828 conn=wye bus1=p1ulv4828.1.2 kV=0.2080002494301389 Vminpu=0.8 Vmaxpu=1.2 model=1 kW=4.17004 kvar=0.8489421946902781 Phases=2

New Load.load_p1ulv4829 conn=wye bus1=p1ulv4829.1.2 kV=0.2080002494301389 Vminpu=0.8 Vmaxpu=1.2 model=1 kW=12.87 kvar=1.0904351605376348 Phases=2

New Load.load_p1ulv4831 conn=wye bus1=p1ulv4831.1.2 kV=0.2080002494301389 Vminpu=0.8 Vmaxpu=1.2 model=1 kW=11.38 kvar=0.7899036155734878 Phases=2

New Load.load_p1ulv4833 conn=wye bus1=p1ulv4833.1.2 kV=0.2080002494301389 Vminpu=0.8 Vmaxpu=1.2 model=1 kW=15.3701 kvar=1.5980879038824647 Phases=2

New Load.load_p1ulv4834 conn=wye bus1=p1ulv4834.1.2 kV=0.2080002494301389 Vminpu=0.8 Vmaxpu=1.2 model=1 kW=11.74 kvar=0.8609768434346036 Phases=2

New Load.load_p1ulv4835 conn=wye bus1=p1ulv4835.1.2 kV=0.2080002494301389 Vminpu=0.8 Vmaxpu=1.2 model=1 kW=12.62 kvar=1.0396704953791336 Phases=2

New Load.load_p1ulv4836 conn=wye bus1=p1ulv4836.1.2 kV=0.2080002494301389 Vminpu=0.8 Vmaxpu=1.2 model=1 kW=12.76 kvar=1.070847855459563 Phases=2

New Load.load_p1ulv4837 conn=wye bus1=p1ulv4837.1.2 kV=0.2080002494301389 Vminpu=0.8 Vmaxpu=1.2 model=1 kW=13.6501 kvar=1.2488229464187643 Phases=2

New Load.load_p1ulv4838 conn=wye bus1=p1ulv4838.1.2 kV=0.2080002494301389 Vminpu=0.8 Vmaxpu=1.2 model=1 kW=14.9401 kvar=1.5107706492232365 Phases=2

New Load.load_p1ulv4839 conn=wye bus1=p1ulv4839.1.2 kV=0.2080002494301389 Vminpu=0.8 Vmaxpu=1.2 model=1 kW=11.36 kvar=0.7797658839270477 Phases=2

New Load.load_p1ulv4840 conn=wye bus1=p1ulv4840.1.2 kV=0.2080002494301389 Vminpu=0.8 Vmaxpu=1.2 model=1 kW=12.4501 kvar=0.999958579116559 Phases=2

New Load.load_p1ulv4841 conn=wye bus1=p1ulv4841.1.2 kV=0.2080002494301389 Vminpu=0.8 Vmaxpu=1.2 model=1 kW=12.58 kvar=1.0288870420985081 Phases=2

New Load.load_p1ulv4842 conn=wye bus1=p1ulv4842.1.2 kV=0.2080002494301389 Vminpu=0.8 Vmaxpu=1.2 model=1 kW=13.4501 kvar=1.2113209933091376 Phases=2

New Load.load_p1ulv4843 conn=wye bus1=p1ulv4843.1.2 kV=0.2080002494301389 Vminpu=0.8 Vmaxpu=1.2 model=1 kW=11.81 kvar=0.8706702910749454 Phases=2

New Load.load_p1ulv4844 conn=wye bus1=p1ulv4844.1.2 kV=0.2080002494301389 Vminpu=0.8 Vmaxpu=1.2 model=1 kW=11.85 kvar=0.8810345938741143 Phases=2

New Load.load_p1ulv4845 conn=wye bus1=p1ulv4845.1.2 kV=0.2080002494301389 Vminpu=0.8 Vmaxpu=1.2 model=1 kW=4.78005 kvar=0.9706305507635722 Phases=2

New Load.load_p1ulv4846 conn=wye bus1=p1ulv4846.1.2 kV=0.2080002494301389 Vminpu=0.8 Vmaxpu=1.2 model=1 kW=11.57 kvar=0.8307064585474014 Phases=2

New Load.load_p1ulv4847 conn=wye bus1=p1ulv4847.1.2 kV=0.2080002494301389 Vminpu=0.8 Vmaxpu=1.2 model=1 kW=12.75 kvar=1.0688120423865706 Phases=2

New Load.load_p1ulv4848 conn=wye bus1=p1ulv4848.1.2 kV=0.2080002494301389 Vminpu=0.8 Vmaxpu=1.2 model=1 kW=4.53005 kvar=0.9198658856050712 Phases=2

New Load.load_p1ulv4849 conn=wye bus1=p1ulv4849.1.2 kV=0.2080002494301389 Vminpu=0.8 Vmaxpu=1.2 model=1 kW=13.1001 kvar=1.1400675357543906 Phases=2

New Load.load_p1ulv4850 conn=wye bus1=p1ulv4850.1.2 kV=0.2080002494301389 Vminpu=0.8 Vmaxpu=1.2 model=1 kW=13.2701 kvar=1.1686380972885935 Phases=2

New Load.load_p1ulv6234 conn=wye bus1=p1ulv6234.1.2 kV=0.2080002494301389 Vminpu=0.8 Vmaxpu=1.2 model=1 kW=6.58007 kvar=1.3395792527207553 Phases=2

New Load.load_p1ulv6274 conn=wye bus1=p1ulv6274.1.2 kV=0.2080002494301389 Vminpu=0.8 Vmaxpu=1.2 model=1 kW=11.23 kvar=0.7593664194785962 Phases=2

New Load.load_p1ulv6275 conn=wye bus1=p1ulv6275.1.2 kV=0.2080002494301389 Vminpu=0.8 Vmaxpu=1.2 model=1 kW=6.20006 kvar=1.2589758794504644 Phases=2

New Load.load_p1ulv6276 conn=wye bus1=p1ulv6276.1.2 kV=0.2080002494301389 Vminpu=0.8 Vmaxpu=1.2 model=1 kW=7.73008 kvar=1.5696596913937038 Phases=2

New Load.load_p1ulv6277 conn=wye bus1=p1ulv6277.1.2 kV=0.2080002494301389 Vminpu=0.8 Vmaxpu=1.2 model=1 kW=12.35 kvar=0.9797575997503596 Phases=2

New Load.load_p1ulv6278 conn=wye bus1=p1ulv6278.1.2 kV=0.2080002494301389 Vminpu=0.8 Vmaxpu=1.2 model=1 kW=13.2301 kvar=1.1605367042542845 Phases=2

New Load.load_p1ulv6279 conn=wye bus1=p1ulv6279.1.2 kV=0.2080002494301389 Vminpu=0.8 Vmaxpu=1.2 model=1 kW=16.4101 kvar=1.8092709415284354 Phases=2

New Load.load_p1ulv6280 conn=wye bus1=p1ulv6280.1.2 kV=0.2080002494301389 Vminpu=0.8 Vmaxpu=1.2 model=1 kW=14.7101 kvar=1.460290271871968 Phases=2

New Load.load_p1ulv6281 conn=wye bus1=p1ulv6281.1.2 kV=0.2080002494301389 Vminpu=0.8 Vmaxpu=1.2 model=1 kW=12.2201 kvar=0.9609139495179535 Phases=2

New Load.load_p1ulv6282 conn=wye bus1=p1ulv6282.1.2 kV=0.2080002494301389 Vminpu=0.8 Vmaxpu=1.2 model=1 kW=12.0401 kvar=0.9195182361353397 Phases=2

New Load.load_p1ulv7777 conn=wye bus1=p1ulv7777.1.2 kV=0.2080002494301389 Vminpu=0.8 Vmaxpu=1.2 model=1 kW=7.27007 kvar=1.4800503547572565 Phases=2

New Load.load_p1ulv7778 conn=wye bus1=p1ulv7778.1.2 kV=0.2080002494301389 Vminpu=0.8 Vmaxpu=1.2 model=1 kW=13.0701 kvar=1.131048923251042 Phases=2

New Load.load_p1ulv7779 conn=wye bus1=p1ulv7779.1.2 kV=0.2080002494301389 Vminpu=0.8 Vmaxpu=1.2 model=1 kW=11.8 kvar=0.8709078525812284 Phases=2

New Load.load_p1ulv7780 conn=wye bus1=p1ulv7780.1.2 kV=0.2080002494301389 Vminpu=0.8 Vmaxpu=1.2 model=1 kW=4.590050000000001 kvar=0.9296449774282256 Phases=2

New Load.load_p1ulv7782 conn=wye bus1=p1ulv7782.1.2 kV=0.2080002494301389 Vminpu=0.8 Vmaxpu=1.2 model=1 kW=12.1101 kvar=0.9409239980998833 Phases=2

New Load.load_p1ulv7783 conn=wye bus1=p1ulv7783.1.2 kV=0.2080002494301389 Vminpu=0.8 Vmaxpu=1.2 model=1 kW=5.30005 kvar=1.0789911077515342 Phases=2

New Load.load_p1ulv7784 conn=wye bus1=p1ulv7784.1.2 kV=0.2080002494301389 Vminpu=0.8 Vmaxpu=1.2 model=1 kW=11.72 kvar=0.8591212600552419 Phases=2

New Load.load_p1ulv7785 conn=wye bus1=p1ulv7785.1.2 kV=0.2080002494301389 Vminpu=0.8 Vmaxpu=1.2 model=1 kW=12.2401 kvar=0.9600252013068835 Phases=2

New Load.load_p1ulv7786 conn=wye bus1=p1ulv7786.1.2 kV=0.2080002494301389 Vminpu=0.8 Vmaxpu=1.2 model=1 kW=12.5401 kvar=1.0207856490641993 Phases=2

New Load.load_p1ulv7787 conn=wye bus1=p1ulv7787.1.2 kV=0.2080002494301389 Vminpu=0.8 Vmaxpu=1.2 model=1 kW=14.1001 kvar=1.3402013742906727 Phases=2

New Load.load_p1ulv7788 conn=wye bus1=p1ulv7788.1.2 kV=0.2080002494301389 Vminpu=0.8 Vmaxpu=1.2 model=1 kW=12.64 kvar=1.0410391316499712 Phases=2

New Load.load_p1ulv7789 conn=wye bus1=p1ulv7789.1.2 kV=0.2080002494301389 Vminpu=0.8 Vmaxpu=1.2 model=1 kW=12.4901 kvar=1.0106589077713133 Phases=2

New Load.load_p1ulv7790 conn=wye bus1=p1ulv7790.1.2 kV=0.2080002494301389 Vminpu=0.8 Vmaxpu=1.2 model=1 kW=12.69 kvar=1.0511658729428572 Phases=2

New Load.load_p1ulv7791 conn=wye bus1=p1ulv7791.1.2 kV=0.2080002494301389 Vminpu=0.8 Vmaxpu=1.2 model=1 kW=14.6201 kvar=1.449513158662365 Phases=2

New Load.load_p1ulv7792 conn=wye bus1=p1ulv7792.1.2 kV=0.2080002494301389 Vminpu=0.8 Vmaxpu=1.2 model=1 kW=12.2701 kvar=0.9710930148829175 Phases=2

New Load.load_p1ulv7793 conn=wye bus1=p1ulv7793.1.2 kV=0.2080002494301389 Vminpu=0.8 Vmaxpu=1.2 model=1 kW=6.26006 kvar=1.2711593990885048 Phases=2

New Load.load_p1ulv7794 conn=wye bus1=p1ulv7794.1.2 kV=0.2080002494301389 Vminpu=0.8 Vmaxpu=1.2 model=1 kW=11.19 kvar=0.7492945800859013 Phases=2

New Load.load_p1ulv7795 conn=wye bus1=p1ulv7795.1.2 kV=0.2080002494301389 Vminpu=0.8 Vmaxpu=1.2 model=1 kW=13.3201 kvar=1.1787648385814788 Phases=2

New Load.load_p1ulv7796 conn=wye bus1=p1ulv7796.1.2 kV=0.2080002494301389 Vminpu=0.8 Vmaxpu=1.2 model=1 kW=11.71 kvar=0.850469311708746 Phases=2

New Load.load_p1ulv7797 conn=wye bus1=p1ulv7797.1.2 kV=0.2080002494301389 Vminpu=0.8 Vmaxpu=1.2 model=1 kW=13.6701 kvar=1.249652027631681 Phases=2

New Load.load_p1ulv7798 conn=wye bus1=p1ulv7798.1.2 kV=0.2080002494301389 Vminpu=0.8 Vmaxpu=1.2 model=1 kW=12.8101 kvar=1.0810269208245273 Phases=2

New Load.load_p1ulv7799 conn=wye bus1=p1ulv7799.1.2 kV=0.2080002494301389 Vminpu=0.8 Vmaxpu=1.2 model=1 kW=6.25006 kvar=1.269128812482165 Phases=2

New Load.load_p1ulv7800 conn=wye bus1=p1ulv7800.1.2 kV=0.2080002494301389 Vminpu=0.8 Vmaxpu=1.2 model=1 kW=13.7201 kvar=1.2597787689245672 Phases=2

New Load.load_p1ulv7801 conn=wye bus1=p1ulv7801.1.2 kV=0.2080002494301389 Vminpu=0.8 Vmaxpu=1.2 model=1 kW=12.1501 kvar=0.9393556410179604 Phases=2

New Load.load_p1ulv7802 conn=wye bus1=p1ulv7802.1.2 kV=0.2080002494301389 Vminpu=0.8 Vmaxpu=1.2 model=1 kW=15.8201 kvar=1.6894643011677664 Phases=2

New Load.load_p1ulv7803 conn=wye bus1=p1ulv7803.1.2 kV=0.2080002494301389 Vminpu=0.8 Vmaxpu=1.2 model=1 kW=5.39005 kvar=1.088842888327837 Phases=2

New Load.load_p1ulv7804 conn=wye bus1=p1ulv7804.1.2 kV=0.2080002494301389 Vminpu=0.8 Vmaxpu=1.2 model=1 kW=13.3001 kvar=1.1807837972142463 Phases=2

New Load.load_p1ulv7805 conn=wye bus1=p1ulv7805.1.2 kV=0.2080002494301389 Vminpu=0.8 Vmaxpu=1.2 model=1 kW=3.68004 kvar=0.7491873541136322 Phases=2

New Load.load_p1ulv7806 conn=wye bus1=p1ulv7806.1.2 kV=0.2080002494301389 Vminpu=0.8 Vmaxpu=1.2 model=1 kW=12.0601 kvar=0.9307188593475932 Phases=2

New Load.load_p1ulv7807 conn=wye bus1=p1ulv7807.1.2 kV=0.2080002494301389 Vminpu=0.8 Vmaxpu=1.2 model=1 kW=12.1101 kvar=0.9409239980998833 Phases=2

New Load.load_p1ulv7808 conn=wye bus1=p1ulv7808.1.2 kV=0.2080002494301389 Vminpu=0.8 Vmaxpu=1.2 model=1 kW=4.590050000000001 kvar=0.9296449774282256 Phases=2

New Load.load_p1ulv7809 conn=wye bus1=p1ulv7809.1.2 kV=0.2080002494301389 Vminpu=0.8 Vmaxpu=1.2 model=1 kW=14.5001 kvar=1.4214248385442743 Phases=2

New Load.load_p1ulv7810 conn=wye bus1=p1ulv7810.1.2 kV=0.2080002494301389 Vminpu=0.8 Vmaxpu=1.2 model=1 kW=5.95006 kvar=1.2113209933091376 Phases=2

New Load.load_p1ulv7811 conn=wye bus1=p1ulv7811.1.2 kV=0.2080002494301389 Vminpu=0.8 Vmaxpu=1.2 model=1 kW=6.020060000000001 kvar=1.219271803753023 Phases=2

New Load.load_p1ulv7812 conn=wye bus1=p1ulv7812.1.2 kV=0.2080002494301389 Vminpu=0.8 Vmaxpu=1.2 model=1 kW=4.590050000000001 kvar=0.9296449774282256 Phases=2

New Load.load_p1ulv7813 conn=wye bus1=p1ulv7813.1.2 kV=0.2080002494301389 Vminpu=0.8 Vmaxpu=1.2 model=1 kW=4.23004 kvar=0.8589462568282636 Phases=2

New Load.load_p1ulv7814 conn=wye bus1=p1ulv7814.1.2 kV=0.2080002494301389 Vminpu=0.8 Vmaxpu=1.2 model=1 kW=8.700090000000001 kvar=1.771175695821369 Phases=2

New Load.load_p1ulv7815 conn=wye bus1=p1ulv7815.1.2 kV=0.2080002494301389 Vminpu=0.8 Vmaxpu=1.2 model=1 kW=3.64004 kvar=0.739141647054201 Phases=2

New Load.load_p1ulv7816 conn=wye bus1=p1ulv7816.1.2 kV=0.2080002494301389 Vminpu=0.8 Vmaxpu=1.2 model=1 kW=15.3701 kvar=1.5980879038824647 Phases=2

New Load.load_p1ulv7817 conn=wye bus1=p1ulv7817.1.2 kV=0.2080002494301389 Vminpu=0.8 Vmaxpu=1.2 model=1 kW=4.77005 kvar=0.9710930148829175 Phases=2

New Load.load_p1ulv7818 conn=wye bus1=p1ulv7818.1.2 kV=0.2080002494301389 Vminpu=0.8 Vmaxpu=1.2 model=1 kW=4.77005 kvar=0.9710930148829175 Phases=2

New Load.load_p1ulv7819 conn=wye bus1=p1ulv7819.1.2 kV=0.2080002494301389 Vminpu=0.8 Vmaxpu=1.2 model=1 kW=11.39 kvar=0.789906312212702 Phases=2

New Load.load_p1ulv7820 conn=wye bus1=p1ulv7820.1.2 kV=0.2080002494301389 Vminpu=0.8 Vmaxpu=1.2 model=1 kW=12.01 kvar=0.9205137205953031 Phases=2

New Load.load_p1ulv7821 conn=wye bus1=p1ulv7821.1.2 kV=0.2080002494301389 Vminpu=0.8 Vmaxpu=1.2 model=1 kW=11.69 kvar=0.8508239104029033 Phases=2

New Load.load_p1ulv8703 conn=wye bus1=p1ulv8703.1.2 kV=0.2080002494301389 Vminpu=0.8 Vmaxpu=1.2 model=1 kW=4.47004 kvar=0.9100165868800613 Phases=2

New Load.load_p1ulv9316 conn=wye bus1=p1ulv9316.1.2 kV=0.2080002494301389 Vminpu=0.8 Vmaxpu=1.2 model=1 kW=11.84 kvar=0.8790092456155372 Phases=2

New Load.load_p1ulv9317 conn=wye bus1=p1ulv9317.1.2 kV=0.2080002494301389 Vminpu=0.8 Vmaxpu=1.2 model=1 kW=20.3 kvar=1.0789911077515342 Phases=2

New Load.load_p1ulv9318 conn=wye bus1=p1ulv9318.1.2 kV=0.2080002494301389 Vminpu=0.8 Vmaxpu=1.2 model=1 kW=11.6 kvar=0.8304008874096844 Phases=2

New Load.load_p1ulv9319 conn=wye bus1=p1ulv9319.1.2 kV=0.2080002494301389 Vminpu=0.8 Vmaxpu=1.2 model=1 kW=4.880050000000001 kvar=0.9909364168269728 Phases=2

New Load.load_p1ulv9320 conn=wye bus1=p1ulv9320.1.2 kV=0.2080002494301389 Vminpu=0.8 Vmaxpu=1.2 model=1 kW=12.9701 kvar=1.110741026601035 Phases=2

New Load.load_p1ulv9321 conn=wye bus1=p1ulv9321.1.2 kV=0.2080002494301389 Vminpu=0.8 Vmaxpu=1.2 model=1 kW=4.50005 kvar=0.9090541719686612 Phases=2

New Load.load_p1ulv9322 conn=wye bus1=p1ulv9322.1.2 kV=0.2080002494301389 Vminpu=0.8 Vmaxpu=1.2 model=1 kW=11.18 kvar=0.7491873541136322 Phases=2

New Load.load_p1ulv9323 conn=wye bus1=p1ulv9323.1.2 kV=0.2080002494301389 Vminpu=0.8 Vmaxpu=1.2 model=1 kW=12.6601 kvar=1.0504897247296356 Phases=2

New Load.load_p1ulv9324 conn=wye bus1=p1ulv9324.1.2 kV=0.2080002494301389 Vminpu=0.8 Vmaxpu=1.2 model=1 kW=4.200040000000001 kvar=0.8506543699954566 Phases=2

New Load.load_p1ulv9325 conn=wye bus1=p1ulv9325.1.2 kV=0.2080002494301389 Vminpu=0.8 Vmaxpu=1.2 model=1 kW=11.85 kvar=0.8810345938741143 Phases=2

New Load.load_p1ulv9326 conn=wye bus1=p1ulv9326.1.2 kV=0.2080002494301389 Vminpu=0.8 Vmaxpu=1.2 model=1 kW=11.57 kvar=0.8307064585474014 Phases=2

New Load.load_p1ulv9327 conn=wye bus1=p1ulv9327.1.2 kV=0.2080002494301389 Vminpu=0.8 Vmaxpu=1.2 model=1 kW=3.48003 kvar=0.71028378024263 Phases=2

New Load.load_p1ulv9329 conn=wye bus1=p1ulv9329.1.2 kV=0.2080002494301389 Vminpu=0.8 Vmaxpu=1.2 model=1 kW=4.73005 kvar=0.960477617731872 Phases=2

New Load.load_p1ulv9330 conn=wye bus1=p1ulv9330.1.2 kV=0.2080002494301389 Vminpu=0.8 Vmaxpu=1.2 model=1 kW=5.40005 kvar=1.0993492384814623 Phases=2

New Load.load_p1ulv9331 conn=wye bus1=p1ulv9331.1.2 kV=0.2080002494301389 Vminpu=0.8 Vmaxpu=1.2 model=1 kW=12.68 kvar=1.0491405246842802 Phases=2

New Load.load_p1ulv9332 conn=wye bus1=p1ulv9332.1.2 kV=0.2080002494301389 Vminpu=0.8 Vmaxpu=1.2 model=1 kW=12.33 kvar=0.9807834837952725 Phases=2

New Load.load_p1ulv9410 conn=wye bus1=p1ulv9410.1.2 kV=0.2080002494301389 Vminpu=0.8 Vmaxpu=1.2 model=1 kW=5.04005 kvar=1.0207856490641993 Phases=2

New Load.load_p1ulv9411 conn=wye bus1=p1ulv9411.1.2 kV=0.2080002494301389 Vminpu=0.8 Vmaxpu=1.2 model=1 kW=5.08005 kvar=1.0288870420985081 Phases=2

New Load.load_p1ulv9412 conn=wye bus1=p1ulv9412.1.2 kV=0.2080002494301389 Vminpu=0.8 Vmaxpu=1.2 model=1 kW=12.5601 kvar=1.030131593999708 Phases=2

New Load.load_p1ulv9413 conn=wye bus1=p1ulv9413.1.2 kV=0.2080002494301389 Vminpu=0.8 Vmaxpu=1.2 model=1 kW=11.32 kvar=0.7696752379912465 Phases=2

New Load.load_p1ulv9414 conn=wye bus1=p1ulv9414.1.2 kV=0.2080002494301389 Vminpu=0.8 Vmaxpu=1.2 model=1 kW=5.95006 kvar=1.2113209933091376 Phases=2

New Load.load_p1ulv9415 conn=wye bus1=p1ulv9415.1.2 kV=0.2080002494301389 Vminpu=0.8 Vmaxpu=1.2 model=1 kW=4.74005 kvar=0.9600252013068835 Phases=2

New Load.load_p1ulv9416 conn=wye bus1=p1ulv9416.1.2 kV=0.2080002494301389 Vminpu=0.8 Vmaxpu=1.2 model=1 kW=5.170050000000001 kvar=1.0498234284108339 Phases=2

New Load.load_p1ulv9417 conn=wye bus1=p1ulv9417.1.2 kV=0.2080002494301389 Vminpu=0.8 Vmaxpu=1.2 model=1 kW=13.0601 kvar=1.129018336644702 Phases=2

New Load.load_p1ulv9418 conn=wye bus1=p1ulv9418.1.2 kV=0.2080002494301389 Vminpu=0.8 Vmaxpu=1.2 model=1 kW=16.6601 kvar=1.8600356066869363 Phases=2

New Load.load_p1ulv9419 conn=wye bus1=p1ulv9419.1.2 kV=0.2080002494301389 Vminpu=0.8 Vmaxpu=1.2 model=1 kW=15.1701 kvar=1.5614849134900406 Phases=2

New Load.load_p1ulv9420 conn=wye bus1=p1ulv9420.1.2 kV=0.2080002494301389 Vminpu=0.8 Vmaxpu=1.2 model=1 kW=13.4801 kvar=1.2111704107187142 Phases=2

New Load.load_p1ulv9421 conn=wye bus1=p1ulv9421.1.2 kV=0.2080002494301389 Vminpu=0.8 Vmaxpu=1.2 model=1 kW=4.66005 kvar=0.951129136852173 Phases=2

New Load.load_p1ulv9424 conn=wye bus1=p1ulv9424.1.2 kV=0.2080002494301389 Vminpu=0.8 Vmaxpu=1.2 model=1 kW=15.6301 kvar=1.6508831556473056 Phases=2

New Load.load_p1ulv9426 conn=wye bus1=p1ulv9426.1.2 kV=0.2080002494301389 Vminpu=0.8 Vmaxpu=1.2 model=1 kW=13.2201 kvar=1.1585113559957074 Phases=2

New Load.load_p1ulv9428 conn=wye bus1=p1ulv9428.1.2 kV=0.2080002494301389 Vminpu=0.8 Vmaxpu=1.2 model=1 kW=13.1001 kvar=1.1400675357543906 Phases=2

New Load.load_p1ulv9429 conn=wye bus1=p1ulv9429.1.2 kV=0.2080002494301389 Vminpu=0.8 Vmaxpu=1.2 model=1 kW=11.67 kvar=0.8489421946902781 Phases=2

New Load.load_p1ulv9430 conn=wye bus1=p1ulv9430.1.2 kV=0.2080002494301389 Vminpu=0.8 Vmaxpu=1.2 model=1 kW=4.54005 kvar=0.9195182361353397 Phases=2

New Load.load_p1ulv9431 conn=wye bus1=p1ulv9431.1.2 kV=0.2080002494301389 Vminpu=0.8 Vmaxpu=1.2 model=1 kW=5.45005 kvar=1.109528303846426 Phases=2

New Load.load_p1ulv9432 conn=wye bus1=p1ulv9432.1.2 kV=0.2080002494301389 Vminpu=0.8 Vmaxpu=1.2 model=1 kW=13.1001 kvar=1.1400675357543906 Phases=2

New Load.load_p1ulv9433 conn=wye bus1=p1ulv9433.1.2 kV=0.2080002494301389 Vminpu=0.8 Vmaxpu=1.2 model=1 kW=15.6701 kvar=1.6590055020726662 Phases=2

New Load.load_p1ulv9434 conn=wye bus1=p1ulv9434.1.2 kV=0.2080002494301389 Vminpu=0.8 Vmaxpu=1.2 model=1 kW=8.88 kvar=0.28022298226153225 Phases=2

New Load.load_p1ulv9435 conn=wye bus1=p1ulv9435.1.2 kV=0.2080002494301389 Vminpu=0.8 Vmaxpu=1.2 model=1 kW=5.55006 kvar=1.1298884703894267 Phases=2

New Load.load_p1ulv9436 conn=wye bus1=p1ulv9436.1.2 kV=0.2080002494301389 Vminpu=0.8 Vmaxpu=1.2 model=1 kW=12.1 kvar=0.9292551513348608 Phases=2

New Load.load_p1ulv9437 conn=wye bus1=p1ulv9437.1.2 kV=0.2080002494301389 Vminpu=0.8 Vmaxpu=1.2 model=1 kW=5.98006 kvar=1.2111704107187142 Phases=2

New Load.load_p1ulv9438 conn=wye bus1=p1ulv9438.1.2 kV=0.2080002494301389 Vminpu=0.8 Vmaxpu=1.2 model=1 kW=3.74004 kvar=0.7594475131176014 Phases=2

New Load.load_p1ulv9440 conn=wye bus1=p1ulv9440.1.2 kV=0.2080002494301389 Vminpu=0.8 Vmaxpu=1.2 model=1 kW=14.1501 kvar=1.3503543073223732 Phases=2

New Load.load_p1ulv11145 conn=wye bus1=p1ulv11145.1.2 kV=0.2080002494301389 Vminpu=0.8 Vmaxpu=1.2 model=1 kW=4.57005 kvar=0.9303767534230621 Phases=2

New Load.load_p1ulv11146 conn=wye bus1=p1ulv11146.1.2 kV=0.2080002494301389 Vminpu=0.8 Vmaxpu=1.2 model=1 kW=5.33005 kvar=1.0795207485629381 Phases=2

New Load.load_p1ulv11149 conn=wye bus1=p1ulv11149.1.2 kV=0.2080002494301389 Vminpu=0.8 Vmaxpu=1.2 model=1 kW=4.94005 kvar=1.0005321664784275 Phases=2

New Load.load_p1ulv11150 conn=wye bus1=p1ulv11150.1.2 kV=0.2080002494301389 Vminpu=0.8 Vmaxpu=1.2 model=1 kW=5.57006 kvar=1.131048923251042 Phases=2

New Load.load_p1ulv11151 conn=wye bus1=p1ulv11151.1.2 kV=0.2080002494301389 Vminpu=0.8 Vmaxpu=1.2 model=1 kW=5.67006 kvar=1.1513547893144422 Phases=2

New Load.load_p1ulv11152 conn=wye bus1=p1ulv11152.1.2 kV=0.2080002494301389 Vminpu=0.8 Vmaxpu=1.2 model=1 kW=5.92006 kvar=1.1990183211672512 Phases=2

New Load.load_p1ulv11154 conn=wye bus1=p1ulv11154.1.2 kV=0.2080002494301389 Vminpu=0.8 Vmaxpu=1.2 model=1 kW=5.04005 kvar=1.0207856490641993 Phases=2

New Load.load_p1ulv11155 conn=wye bus1=p1ulv11155.1.2 kV=0.2080002494301389 Vminpu=0.8 Vmaxpu=1.2 model=1 kW=7.42007 kvar=1.510587550852148 Phases=2

New Load.load_p1ulv11156 conn=wye bus1=p1ulv11156.1.2 kV=0.2080002494301389 Vminpu=0.8 Vmaxpu=1.2 model=1 kW=6.21006 kvar=1.2610064660568046 Phases=2

New Load.load_p1ulv11157 conn=wye bus1=p1ulv11157.1.2 kV=0.2080002494301389 Vminpu=0.8 Vmaxpu=1.2 model=1 kW=5.30005 kvar=1.0789911077515342 Phases=2

New Load.load_p1ulv11165 conn=wye bus1=p1ulv11165.1.2 kV=0.2080002494301389 Vminpu=0.8 Vmaxpu=1.2 model=1 kW=3.83004 kvar=0.7797245502085238 Phases=2

New Load.load_p1ulv11507 conn=wye bus1=p1ulv11507.1.2 kV=0.2080002494301389 Vminpu=0.8 Vmaxpu=1.2 model=1 kW=3.54004 kvar=0.7206859710917335 Phases=2

New Load.load_p1ulv11508 conn=wye bus1=p1ulv11508.1.2 kV=0.2080002494301389 Vminpu=0.8 Vmaxpu=1.2 model=1 kW=3.93004 kvar=0.8000826809384517 Phases=2

New Load.load_p1ulv11509 conn=wye bus1=p1ulv11509.1.2 kV=0.2080002494301389 Vminpu=0.8 Vmaxpu=1.2 model=1 kW=3.66004 kvar=0.7393639251946486 Phases=2

New Load.load_p1ulv11510 conn=wye bus1=p1ulv11510.1.2 kV=0.2080002494301389 Vminpu=0.8 Vmaxpu=1.2 model=1 kW=5.30005 kvar=1.0789911077515342 Phases=2

New Load.load_p1ulv11511 conn=wye bus1=p1ulv11511.1.2 kV=0.2080002494301389 Vminpu=0.8 Vmaxpu=1.2 model=1 kW=4.36004 kvar=0.8807707807580453 Phases=2

New Load.load_p1ulv11512 conn=wye bus1=p1ulv11512.1.2 kV=0.2080002494301389 Vminpu=0.8 Vmaxpu=1.2 model=1 kW=4.53005 kvar=0.9198658856050712 Phases=2

New Load.load_p1ulv11513 conn=wye bus1=p1ulv11513.1.2 kV=0.2080002494301389 Vminpu=0.8 Vmaxpu=1.2 model=1 kW=3.25003 kvar=0.659946738820333 Phases=2

New Load.load_p1ulv11514 conn=wye bus1=p1ulv11514.1.2 kV=0.2080002494301389 Vminpu=0.8 Vmaxpu=1.2 model=1 kW=4.39004 kvar=0.8891359869084231 Phases=2

New Load.load_p1ulv11515 conn=wye bus1=p1ulv11515.1.2 kV=0.2080002494301389 Vminpu=0.8 Vmaxpu=1.2 model=1 kW=9.290090000000001 kvar=1.8912886671279427 Phases=2

New Load.load_p1ulv11516 conn=wye bus1=p1ulv11516.1.2 kV=0.2080002494301389 Vminpu=0.8 Vmaxpu=1.2 model=1 kW=4.18004 kvar=0.8509780077632708 Phases=2

New Load.load_p1ulv11517 conn=wye bus1=p1ulv11517.1.2 kV=0.2080002494301389 Vminpu=0.8 Vmaxpu=1.2 model=1 kW=5.59006 kvar=1.1292468671581726 Phases=2

New Load.load_p1ulv11518 conn=wye bus1=p1ulv11518.1.2 kV=0.2080002494301389 Vminpu=0.8 Vmaxpu=1.2 model=1 kW=6.05006 kvar=1.2285170803553642 Phases=2

New Load.load_p1ulv11519 conn=wye bus1=p1ulv11519.1.2 kV=0.2080002494301389 Vminpu=0.8 Vmaxpu=1.2 model=1 kW=5.35005 kvar=1.0891701731164982 Phases=2

New Load.load_p1ulv11520 conn=wye bus1=p1ulv11520.1.2 kV=0.2080002494301389 Vminpu=0.8 Vmaxpu=1.2 model=1 kW=3.11003 kvar=0.6298893844622836 Phases=2

New Load.load_p1ulv11521 conn=wye bus1=p1ulv11521.1.2 kV=0.2080002494301389 Vminpu=0.8 Vmaxpu=1.2 model=1 kW=3.91004 kvar=0.7898663736101474 Phases=2

New Load.load_p1ulv11522 conn=wye bus1=p1ulv11522.1.2 kV=0.2080002494301389 Vminpu=0.8 Vmaxpu=1.2 model=1 kW=4.06004 kvar=0.8201678426594468 Phases=2

New Load.load_p1ulv11523 conn=wye bus1=p1ulv11523.1.2 kV=0.2080002494301389 Vminpu=0.8 Vmaxpu=1.2 model=1 kW=3.74004 kvar=0.7594475131176014 Phases=2

New Load.load_p1ulv11524 conn=wye bus1=p1ulv11524.1.2 kV=0.2080002494301389 Vminpu=0.8 Vmaxpu=1.2 model=1 kW=5.50006 kvar=1.119709405024463 Phases=2

New Load.load_p1ulv11525 conn=wye bus1=p1ulv11525.1.2 kV=0.2080002494301389 Vminpu=0.8 Vmaxpu=1.2 model=1 kW=4.55005 kvar=0.9191546616517607 Phases=2

New Load.load_p1ulv11526 conn=wye bus1=p1ulv11526.1.2 kV=0.2080002494301389 Vminpu=0.8 Vmaxpu=1.2 model=1 kW=3.51004 kvar=0.7109053401536299 Phases=2

New Load.load_p1ulv11527 conn=wye bus1=p1ulv11527.1.2 kV=0.2080002494301389 Vminpu=0.8 Vmaxpu=1.2 model=1 kW=4.69005 kvar=0.9498984600139976 Phases=2

New Load.load_p1ulv11528 conn=wye bus1=p1ulv11528.1.2 kV=0.2080002494301389 Vminpu=0.8 Vmaxpu=1.2 model=1 kW=3.9400400000000007 kvar=0.8000592452444024 Phases=2

New Load.load_p1ulv11529 conn=wye bus1=p1ulv11529.1.2 kV=0.2080002494301389 Vminpu=0.8 Vmaxpu=1.2 model=1 kW=3.41003 kvar=0.6906498322195993 Phases=2

New Load.load_p1ulv11530 conn=wye bus1=p1ulv11530.1.2 kV=0.2080002494301389 Vminpu=0.8 Vmaxpu=1.2 model=1 kW=5.67006 kvar=1.1513547893144422 Phases=2

New Load.load_p1ulv11531 conn=wye bus1=p1ulv11531.1.2 kV=0.2080002494301389 Vminpu=0.8 Vmaxpu=1.2 model=1 kW=3.7100400000000002 kvar=0.7494644148777485 Phases=2

New Load.load_p1ulv11532 conn=wye bus1=p1ulv11532.1.2 kV=0.2080002494301389 Vminpu=0.8 Vmaxpu=1.2 model=1 kW=4.44004 kvar=0.8992627282013091 Phases=2

New Load.load_p1ulv11533 conn=wye bus1=p1ulv11533.1.2 kV=0.2080002494301389 Vminpu=0.8 Vmaxpu=1.2 model=1 kW=6.25006 kvar=1.269128812482165 Phases=2

New Load.load_p1ulv11534 conn=wye bus1=p1ulv11534.1.2 kV=0.2080002494301389 Vminpu=0.8 Vmaxpu=1.2 model=1 kW=6.060060000000001 kvar=1.2305476669617041 Phases=2

New Load.load_p1ulv11535 conn=wye bus1=p1ulv11535.1.2 kV=0.2080002494301389 Vminpu=0.8 Vmaxpu=1.2 model=1 kW=4.4900400000000005 kvar=0.9093894694941951 Phases=2

New Load.load_p1ulv11536 conn=wye bus1=p1ulv11536.1.2 kV=0.2080002494301389 Vminpu=0.8 Vmaxpu=1.2 model=1 kW=3.57004 kvar=0.7305125553603958 Phases=2

New Load.load_p1ulv11537 conn=wye bus1=p1ulv11537.1.2 kV=0.2080002494301389 Vminpu=0.8 Vmaxpu=1.2 model=1 kW=3.56004 kvar=0.7191629458284491 Phases=2

New Load.load_p1ulv11538 conn=wye bus1=p1ulv11538.1.2 kV=0.2080002494301389 Vminpu=0.8 Vmaxpu=1.2 model=1 kW=3.46003 kvar=0.7007765735124853 Phases=2

New Load.load_p1ulv11539 conn=wye bus1=p1ulv11539.1.2 kV=0.2080002494301389 Vminpu=0.8 Vmaxpu=1.2 model=1 kW=3.99004 kvar=0.8102121782761024 Phases=2

New Load.load_p1ulv11540 conn=wye bus1=p1ulv11540.1.2 kV=0.2080002494301389 Vminpu=0.8 Vmaxpu=1.2 model=1 kW=3.9400400000000007 kvar=0.8000592452444024 Phases=2

New Load.load_p1ulv11541 conn=wye bus1=p1ulv11541.1.2 kV=0.2080002494301389 Vminpu=0.8 Vmaxpu=1.2 model=1 kW=5.86006 kvar=1.1899359348349032 Phases=2

New Load.load_p1ulv11542 conn=wye bus1=p1ulv11542.1.2 kV=0.2080002494301389 Vminpu=0.8 Vmaxpu=1.2 model=1 kW=4.74005 kvar=0.9600252013068835 Phases=2

New Load.load_p1ulv11543 conn=wye bus1=p1ulv11543.1.2 kV=0.2080002494301389 Vminpu=0.8 Vmaxpu=1.2 model=1 kW=3.08003 kvar=0.6205753927367721 Phases=2

New Load.load_p1ulv11544 conn=wye bus1=p1ulv11544.1.2 kV=0.2080002494301389 Vminpu=0.8 Vmaxpu=1.2 model=1 kW=4.25004 kvar=0.8607811112883423 Phases=2

New Load.load_p1ulv11545 conn=wye bus1=p1ulv11545.1.2 kV=0.2080002494301389 Vminpu=0.8 Vmaxpu=1.2 model=1 kW=5.19005 kvar=1.0511658729428572 Phases=2

New Load.load_p1ulv11546 conn=wye bus1=p1ulv11546.1.2 kV=0.2080002494301389 Vminpu=0.8 Vmaxpu=1.2 model=1 kW=4.44004 kvar=0.8992627282013091 Phases=2

New Load.load_p1ulv11547 conn=wye bus1=p1ulv11547.1.2 kV=0.2080002494301389 Vminpu=0.8 Vmaxpu=1.2 model=1 kW=4.53005 kvar=0.9198658856050712 Phases=2

New Load.load_p1ulv11548 conn=wye bus1=p1ulv11548.1.2 kV=0.2080002494301389 Vminpu=0.8 Vmaxpu=1.2 model=1 kW=7.68008 kvar=1.5595067583620035 Phases=2

New Load.load_p1ulv11549 conn=wye bus1=p1ulv11549.1.2 kV=0.2080002494301389 Vminpu=0.8 Vmaxpu=1.2 model=1 kW=5.01005 kvar=1.019952528634744 Phases=2

New Load.load_p1ulv11550 conn=wye bus1=p1ulv11550.1.2 kV=0.2080002494301389 Vminpu=0.8 Vmaxpu=1.2 model=1 kW=4.54005 kvar=0.9195182361353397 Phases=2

New Load.load_p1ulv11551 conn=wye bus1=p1ulv11551.1.2 kV=0.2080002494301389 Vminpu=0.8 Vmaxpu=1.2 model=1 kW=5.24005 kvar=1.0612926142357433 Phases=2

New Load.load_p1ulv11552 conn=wye bus1=p1ulv11552.1.2 kV=0.2080002494301389 Vminpu=0.8 Vmaxpu=1.2 model=1 kW=5.51006 kvar=1.1188654036130017 Phases=2

New Load.load_p1ulv11553 conn=wye bus1=p1ulv11553.1.2 kV=0.2080002494301389 Vminpu=0.8 Vmaxpu=1.2 model=1 kW=6.100060000000001 kvar=1.2386700133870643 Phases=2

New Load.load_p1ulv11554 conn=wye bus1=p1ulv11554.1.2 kV=0.2080002494301389 Vminpu=0.8 Vmaxpu=1.2 model=1 kW=5.59006 kvar=1.1409467586725162 Phases=2

New Load.load_p1ulv11555 conn=wye bus1=p1ulv11555.1.2 kV=0.2080002494301389 Vminpu=0.8 Vmaxpu=1.2 model=1 kW=4.23004 kvar=0.8589462568282636 Phases=2

New Load.load_p1ulv11556 conn=wye bus1=p1ulv11556.1.2 kV=0.2080002494301389 Vminpu=0.8 Vmaxpu=1.2 model=1 kW=3.76004 kvar=0.7595649045608481 Phases=2

New Load.load_p1ulv11557 conn=wye bus1=p1ulv11557.1.2 kV=0.2080002494301389 Vminpu=0.8 Vmaxpu=1.2 model=1 kW=4.85005 kvar=0.9899086641108747 Phases=2

New Load.load_p1ulv11567 conn=wye bus1=p1ulv11567.1.2 kV=0.2080002494301389 Vminpu=0.8 Vmaxpu=1.2 model=1 kW=3.62004 kvar=0.7293785270672118 Phases=2
