New Line.l(r:p1ulv3149-udt1453lv) Units=km Length=0.00545998 bus1=udt1453lv.1.2 bus2=p1ulv3149.1.2 switch=n enabled=y phases=2 Linecode=1P_UG_AL_1/0_Brenau_0_416_0_2_2

New Line.l(r:p1ulv3151-udm5911) Units=km Length=0.005774700000000001 bus1=udm5911.1.2 bus2=p1ulv3151.1.2 switch=n enabled=y phases=2 Linecode=1P_UG_AL_1/0_Brenau_0_416_0_2_2

New Line.l(r:p1ulv3152-udm5912) Units=km Length=0.00573537 bus1=udm5912.1.2 bus2=p1ulv3152.1.2 switch=n enabled=y phases=2 Linecode=1P_UG_AL_1/0_Brenau_0_416_0_2_2

New Line.l(r:p1ulv17669-udm5915) Units=km Length=0.023178400000000002 bus1=udm5915.1.2 bus2=p1ulv17669.1.2 switch=n enabled=y phases=2 Linecode=1P_OH_AL_2/0_Rucina_0_416_0_2_2

New Line.l(r:udm5912-udm5915) Units=km Length=0.00966398 bus1=udm5912.1.2 bus2=udm5915.1.2 switch=n enabled=y phases=2 Linecode=1P_OH_AL_2/0_Rucina_0_416_0_2_2

New Line.l(r:udm5911-udm5912) Units=km Length=0.0093858 bus1=udm5911.1.2 bus2=udm5912.1.2 switch=n enabled=y phases=2 Linecode=1P_UG_AL_2/0_Converse_0_416_0_2_2

New Line.l(r:udm5911-udt1453lv) Units=km Length=0.018761600000000003 bus1=udt1453lv.1.2 bus2=udm5911.1.2 switch=n enabled=y phases=2 Linecode=1P_UG_AL_4/0_Sweetbriar_0_416_0_2_2

New Line.l(r:p1ulv3153-udm5913) Units=km Length=0.0102108 bus1=udm5913.1.2 bus2=p1ulv3153.1.2 switch=n enabled=y phases=2 Linecode=1P_UG_AL_1/0_Brenau_0_416_0_2_2

New Line.l(r:p1ulv3154-udm5914) Units=km Length=0.00572451 bus1=udm5914.1.2 bus2=p1ulv3154.1.2 switch=n enabled=y phases=2 Linecode=1P_UG_AL_1/0_Brenau_0_416_0_2_2

New Line.l(r:p1ulv26473-udm5916) Units=km Length=0.0234027 bus1=udm5916.1.2 bus2=p1ulv26473.1.2 switch=n enabled=y phases=2 Linecode=1P_OH_AL_2/0_Rucina_0_416_0_2_2

New Line.l(r:p1ulv38512-udm5916) Units=km Length=0.0246964 bus1=udm5916.1.2 bus2=p1ulv38512.1.2 switch=n enabled=y phases=2 Linecode=1P_OH_AL_2/0_Rucina_0_416_0_2_2

New Line.l(r:udm5914-udm5916) Units=km Length=0.0188851 bus1=udm5914.1.2 bus2=udm5916.1.2 switch=n enabled=y phases=2 Linecode=1P_OH_AL_2/0_Rucina_0_416_0_2_2

New Line.l(r:udm5913-udm5914) Units=km Length=0.0093858 bus1=udm5913.1.2 bus2=udm5914.1.2 switch=n enabled=y phases=2 Linecode=1P_UG_AL_4/0_Sweetbriar_0_416_0_2_2

New Line.l(r:udm5913-udt1453lv) Units=km Length=0.0093858 bus1=udt1453lv.1.2 bus2=udm5913.1.2 switch=n enabled=y phases=2 Linecode=1P_UG_AL_4/0_Sweetbriar_0_416_0_2_2

New Line.l(r:p1ulv3158-udm5920) Units=km Length=0.0055617 bus1=udm5920.1.2 bus2=p1ulv3158.1.2 switch=n enabled=y phases=2 Linecode=1P_UG_AL_1/0_Brenau_0_416_0_2_2

New Line.l(r:p1ulv3160-udm5920) Units=km Length=0.0129439 bus1=udm5920.1.2 bus2=p1ulv3160.1.2 switch=n enabled=y phases=2 Linecode=1P_UG_AL_1/0_Brenau_0_416_0_2_2

New Line.l(r:p1ulv3150-udm5918) Units=km Length=0.0031028100000000006 bus1=udm5918.1.2 bus2=p1ulv3150.1.2 switch=n enabled=y phases=2 Linecode=1P_UG_AL_1/0_Brenau_0_416_0_2_2

New Line.l(r:p1ulv3159-udm5918) Units=km Length=0.0150472 bus1=udm5918.1.2 bus2=p1ulv3159.1.2 switch=n enabled=y phases=2 Linecode=1P_UG_AL_1/0_Brenau_0_416_0_2_2

New Line.l(r:udm5918-udm5920) Units=km Length=0.017126 bus1=udm5920.1.2 bus2=udm5918.1.2 switch=n enabled=y phases=2 Linecode=1P_UG_AL_2/0_Converse_0_416_0_2_2

New Line.l(r:udm5920-udt1454lv) Units=km Length=0.00856426 bus1=udt1454lv.1.2 bus2=udm5920.1.2 switch=n enabled=y phases=2 Linecode=1P_UG_AL_4/0_Sweetbriar_0_416_0_2_2

New Line.l(r:p1ulv3161-udm5923) Units=km Length=0.0132499 bus1=udm5923.1.2 bus2=p1ulv3161.1.2 switch=n enabled=y phases=2 Linecode=1P_UG_AL_1/0_Brenau_0_416_0_2_2

New Line.l(r:p1ulv3157-udm5919) Units=km Length=0.012060400000000002 bus1=udm5919.1.2 bus2=p1ulv3157.1.2 switch=n enabled=y phases=2 Linecode=1P_UG_AL_1/0_Brenau_0_416_0_2_2

New Line.l(r:udm5919-udm5923) Units=km Length=0.0166833 bus1=udm5923.1.2 bus2=udm5919.1.2 switch=n enabled=y phases=2 Linecode=1P_UG_AL_1/0_Brenau_0_416_0_2_2

New Line.l(r:p1ulv3188-udm5925) Units=km Length=0.00678649 bus1=udm5925.1.2 bus2=p1ulv3188.1.2 switch=n enabled=y phases=2 Linecode=1P_UG_AL_1/0_Brenau_0_416_0_2_2

New Line.l(r:p1ulv3162-udm5924) Units=km Length=0.011006 bus1=udm5924.1.2 bus2=p1ulv3162.1.2 switch=n enabled=y phases=2 Linecode=1P_UG_AL_1/0_Brenau_0_416_0_2_2

New Line.l(r:udm5924-udm5925) Units=km Length=0.00677402 bus1=udm5925.1.2 bus2=udm5924.1.2 switch=n enabled=y phases=2 Linecode=1P_UG_AL_1/0_Brenau_0_416_0_2_2

New Line.l(r:udm5923-udm5925) Units=km Length=0.00723553 bus1=udm5923.1.2 bus2=udm5925.1.2 switch=n enabled=y phases=2 Linecode=1P_UG_AL_1/0_Brenau_0_416_0_2_2

New Line.l(r:udm5923-udt1454lv) Units=km Length=0.00855458 bus1=udt1454lv.1.2 bus2=udm5923.1.2 switch=n enabled=y phases=2 Linecode=1P_UG_AL_4/0_Sweetbriar_0_416_0_2_2

New Line.l(r:p1ulv3155-udm5926) Units=km Length=0.00747615 bus1=udm5926.1.2 bus2=p1ulv3155.1.2 switch=n enabled=y phases=2 Linecode=1P_OH_AL_2/0_Rucina_0_416_0_2_2

New Line.l(r:udm5926-udt1455lv) Units=km Length=0.0180851 bus1=udt1455lv.1.2 bus2=udm5926.1.2 switch=n enabled=y phases=2 Linecode=1P_OH_AL_2/0_Rucina_0_416_0_2_2

New Line.l(r:p1ulv3156-udm5927) Units=km Length=0.0114914 bus1=udm5927.1.2 bus2=p1ulv3156.1.2 switch=n enabled=y phases=2 Linecode=1P_UG_AL_1/0_Brenau_0_416_0_2_2

New Line.l(r:udm5927-udt1455lv) Units=km Length=0.0251995 bus1=udt1455lv.1.2 bus2=udm5927.1.2 switch=n enabled=y phases=2 Linecode=1P_UG_AL_1/0_Brenau_0_416_0_2_2

New Line.l(r:p1ulv3164-udm5929) Units=km Length=0.00436175 bus1=udm5929.1.2 bus2=p1ulv3164.1.2 switch=n enabled=y phases=2 Linecode=1P_UG_AL_1/0_Brenau_0_416_0_2_2

New Line.l(r:p1ulv3163-udm5928) Units=km Length=0.00395643 bus1=udm5928.1.2 bus2=p1ulv3163.1.2 switch=n enabled=y phases=2 Linecode=1P_UG_AL_1/0_Brenau_0_416_0_2_2

New Line.l(r:p1ulv38743-udm5934) Units=km Length=0.0215451 bus1=udm5934.1.2 bus2=p1ulv38743.1.2 switch=n enabled=y phases=2 Linecode=1P_UG_AL_1/0_Brenau_0_416_0_2_2

New Line.l(r:udm5928-udm5934) Units=km Length=0.0311344 bus1=udm5928.1.2 bus2=udm5934.1.2 switch=n enabled=y phases=2 Linecode=1P_UG_AL_1/0_Brenau_0_416_0_2_2

New Line.l(r:udm5928-udm5929) Units=km Length=0.00888576 bus1=udm5929.1.2 bus2=udm5928.1.2 switch=n enabled=y phases=2 Linecode=1P_UG_AL_2/0_Converse_0_416_0_2_2

New Line.l(r:udm5929-udt1456lv) Units=km Length=0.0146168 bus1=udt1456lv.1.2 bus2=udm5929.1.2 switch=n enabled=y phases=2 Linecode=1P_UG_AL_4/0_Sweetbriar_0_416_0_2_2

New Line.l(r:p1ulv3165-udm5930) Units=km Length=0.0158532 bus1=udm5930.1.2 bus2=p1ulv3165.1.2 switch=n enabled=y phases=2 Linecode=1P_UG_AL_1/0_Brenau_0_416_0_2_2

New Line.l(r:p1ulv3166-udm5931) Units=km Length=0.00485074 bus1=udm5931.1.2 bus2=p1ulv3166.1.2 switch=n enabled=y phases=2 Linecode=1P_UG_AL_1/0_Brenau_0_416_0_2_2

New Line.l(r:p1ulv3167-udm5932) Units=km Length=0.00550085 bus1=udm5932.1.2 bus2=p1ulv3167.1.2 switch=n enabled=y phases=2 Linecode=1P_UG_AL_1/0_Brenau_0_416_0_2_2

New Line.l(r:p1ulv3168-udm5933) Units=km Length=0.00583551 bus1=udm5933.1.2 bus2=p1ulv3168.1.2 switch=n enabled=y phases=2 Linecode=1P_UG_AL_1/0_Brenau_0_416_0_2_2

New Line.l(r:udm5932-udm5933) Units=km Length=0.008342870000000002 bus1=udm5932.1.2 bus2=udm5933.1.2 switch=n enabled=y phases=2 Linecode=1P_UG_AL_1/0_Brenau_0_416_0_2_2

New Line.l(r:udm5931-udm5932) Units=km Length=0.0166922 bus1=udm5931.1.2 bus2=udm5932.1.2 switch=n enabled=y phases=2 Linecode=1P_UG_AL_2/0_Converse_0_416_0_2_2

New Line.l(r:udm5930-udm5931) Units=km Length=0.00834937 bus1=udm5930.1.2 bus2=udm5931.1.2 switch=n enabled=y phases=2 Linecode=1P_UG_AL_4/0_Sweetbriar_0_416_0_2_2

New Line.l(r:udm5930-udt1456lv) Units=km Length=0.005721510000000001 bus1=udt1456lv.1.2 bus2=udm5930.1.2 switch=n enabled=y phases=2 Linecode=1P_UG_AL_4/0_Sweetbriar_0_416_0_2_2

New Line.l(r:p1ulv3171-udt1457lv) Units=km Length=0.0137372 bus1=udt1457lv.1.2 bus2=p1ulv3171.1.2 switch=n enabled=y phases=2 Linecode=1P_UG_AL_1/0_Brenau_0_416_0_2_2

New Line.l(r:p1ulv3172-udm5938) Units=km Length=0.00731837 bus1=udm5938.1.2 bus2=p1ulv3172.1.2 switch=n enabled=y phases=2 Linecode=1P_UG_AL_1/0_Brenau_0_416_0_2_2

New Line.l(r:p1ulv3170-udm5936) Units=km Length=0.0142209 bus1=udm5936.1.2 bus2=p1ulv3170.1.2 switch=n enabled=y phases=2 Linecode=1P_UG_AL_1/0_Brenau_0_416_0_2_2

New Line.l(r:p1ulv3169-udm5935) Units=km Length=0.017539700000000002 bus1=udm5935.1.2 bus2=p1ulv3169.1.2 switch=n enabled=y phases=2 Linecode=1P_UG_AL_1/0_Brenau_0_416_0_2_2

New Line.l(r:udm5935-udm5936) Units=km Length=0.00945323 bus1=udm5936.1.2 bus2=udm5935.1.2 switch=n enabled=y phases=2 Linecode=1P_UG_AL_1/0_Brenau_0_416_0_2_2

New Line.l(r:udm5936-udm5938) Units=km Length=0.00945053 bus1=udm5938.1.2 bus2=udm5936.1.2 switch=n enabled=y phases=2 Linecode=1P_UG_AL_2/0_Converse_0_416_0_2_2

New Line.l(r:udm5938-udt1457lv) Units=km Length=0.019386 bus1=udt1457lv.1.2 bus2=udm5938.1.2 switch=n enabled=y phases=2 Linecode=1P_UG_AL_4/0_Sweetbriar_0_416_0_2_2

New Line.l(r:p1ulv3196-udm5939) Units=km Length=0.00966207 bus1=udm5939.1.2 bus2=p1ulv3196.1.2 switch=n enabled=y phases=2 Linecode=1P_UG_AL_1/0_Brenau_0_416_0_2_2

New Line.l(r:udm5939-udt1457lv) Units=km Length=0.0771677 bus1=udt1457lv.1.2 bus2=udm5939.1.2 switch=n enabled=y phases=2 Linecode=1P_UG_AL_1/0_Brenau_0_416_0_2_2

New Line.l(r:p1ulv3194-udm5943) Units=km Length=0.0064224600000000005 bus1=udm5943.1.2 bus2=p1ulv3194.1.2 switch=n enabled=y phases=2 Linecode=1P_UG_AL_1/0_Brenau_0_416_0_2_2

New Line.l(r:p1ulv3173-udm5940) Units=km Length=0.0155053 bus1=udm5940.1.2 bus2=p1ulv3173.1.2 switch=n enabled=y phases=2 Linecode=1P_UG_AL_1/0_Brenau_0_416_0_2_2

New Line.l(r:udm5940-udm5943) Units=km Length=0.00730762 bus1=udm5943.1.2 bus2=udm5940.1.2 switch=n enabled=y phases=2 Linecode=1P_UG_AL_1/0_Brenau_0_416_0_2_2

New Line.l(r:udm5943-udt1458lv) Units=km Length=0.00729524 bus1=udt1458lv.1.2 bus2=udm5943.1.2 switch=n enabled=y phases=2 Linecode=1P_UG_AL_1/0_Brenau_0_416_0_2_2

New Line.l(r:p1ulv3195-udm5944) Units=km Length=0.00892027 bus1=udm5944.1.2 bus2=p1ulv3195.1.2 switch=n enabled=y phases=2 Linecode=1P_UG_AL_1/0_Brenau_0_416_0_2_2

New Line.l(r:p1ulv3193-udm5942) Units=km Length=0.030557900000000002 bus1=udm5942.1.2 bus2=p1ulv3193.1.2 switch=n enabled=y phases=2 Linecode=1P_UG_AL_1/0_Brenau_0_416_0_2_2

New Line.l(r:p1ulv3192-udm5941) Units=km Length=0.0323977 bus1=udm5941.1.2 bus2=p1ulv3192.1.2 switch=n enabled=y phases=2 Linecode=1P_UG_AL_1/0_Brenau_0_416_0_2_2

New Line.l(r:udm5941-udm5942) Units=km Length=0.007737610000000001 bus1=udm5942.1.2 bus2=udm5941.1.2 switch=n enabled=y phases=2 Linecode=1P_UG_AL_1/0_Brenau_0_416_0_2_2

New Line.l(r:udm5942-udm5944) Units=km Length=0.0694793 bus1=udm5944.1.2 bus2=udm5942.1.2 switch=n enabled=y phases=2 Linecode=1P_UG_AL_2/0_Converse_0_416_0_2_2

New Line.l(r:udm5944-udt1458lv) Units=km Length=0.00859826 bus1=udt1458lv.1.2 bus2=udm5944.1.2 switch=n enabled=y phases=2 Linecode=1P_UG_AL_4/0_Sweetbriar_0_416_0_2_2

New Line.l(r:p1ulv3174-udt1459lv) Units=km Length=0.0118243 bus1=udt1459lv.1.2 bus2=p1ulv3174.1.2 switch=n enabled=y phases=2 Linecode=1P_UG_AL_1/0_Brenau_0_416_0_2_2

New Line.l(r:p1ulv3175-udt1459lv) Units=km Length=0.0149237 bus1=udt1459lv.1.2 bus2=p1ulv3175.1.2 switch=n enabled=y phases=2 Linecode=1P_UG_AL_1/0_Brenau_0_416_0_2_2

New Line.l(r:p1ulv3179-udt1459lv) Units=km Length=0.0194136 bus1=udt1459lv.1.2 bus2=p1ulv3179.1.2 switch=n enabled=y phases=2 Linecode=1P_UG_AL_1/0_Brenau_0_416_0_2_2

New Line.l(r:p1ulv3181-udt1459lv) Units=km Length=0.0264707 bus1=udt1459lv.1.2 bus2=p1ulv3181.1.2 switch=n enabled=y phases=2 Linecode=1P_UG_AL_1/0_Brenau_0_416_0_2_2

New Line.l(r:p1ulv3176-udm5947) Units=km Length=0.0132616 bus1=udm5947.1.2 bus2=p1ulv3176.1.2 switch=n enabled=y phases=2 Linecode=1P_UG_AL_1/0_Brenau_0_416_0_2_2

New Line.l(r:p1ulv3191-udm5947) Units=km Length=0.013031800000000001 bus1=udm5947.1.2 bus2=p1ulv3191.1.2 switch=n enabled=y phases=2 Linecode=1P_UG_AL_1/0_Brenau_0_416_0_2_2

New Line.l(r:p1ulv3189-udm5950) Units=km Length=0.0109944 bus1=udm5950.1.2 bus2=p1ulv3189.1.2 switch=n enabled=y phases=2 Linecode=1P_UG_AL_1/0_Brenau_0_416_0_2_2

New Line.l(r:p1ulv3190-udm5951) Units=km Length=0.010175000000000002 bus1=udm5951.1.2 bus2=p1ulv3190.1.2 switch=n enabled=y phases=2 Linecode=1P_UG_AL_1/0_Brenau_0_416_0_2_2

New Line.l(r:udm5950-udm5951) Units=km Length=0.0097806 bus1=udm5950.1.2 bus2=udm5951.1.2 switch=n enabled=y phases=2 Linecode=1P_UG_AL_1/0_Brenau_0_416_0_2_2

New Line.l(r:udm5947-udm5950) Units=km Length=0.0455939 bus1=udm5947.1.2 bus2=udm5950.1.2 switch=n enabled=y phases=2 Linecode=1P_UG_AL_1/0_Brenau_0_416_0_2_2

New Line.l(r:udm5947-udt1459lv) Units=km Length=0.00727602 bus1=udt1459lv.1.2 bus2=udm5947.1.2 switch=n enabled=y phases=2 Linecode=1P_UG_AL_4/0_Sweetbriar_0_416_0_2_2

New Line.l(r:p1ulv3177-udm5953) Units=km Length=0.00721665 bus1=udm5953.1.2 bus2=p1ulv3177.1.2 switch=n enabled=y phases=2 Linecode=1P_UG_AL_1/0_Brenau_0_416_0_2_2

New Line.l(r:p1ulv3178-udm5953) Units=km Length=0.0179922 bus1=udm5953.1.2 bus2=p1ulv3178.1.2 switch=n enabled=y phases=2 Linecode=1P_UG_AL_1/0_Brenau_0_416_0_2_2

New Line.l(r:udm5953-udt1460lv) Units=km Length=0.017738600000000004 bus1=udt1460lv.1.2 bus2=udm5953.1.2 switch=n enabled=y phases=2 Linecode=1P_UG_AL_1/0_Brenau_0_416_0_2_2

New Line.l(r:p1ulv3182-udm5955) Units=km Length=0.006338080000000001 bus1=udm5955.1.2 bus2=p1ulv3182.1.2 switch=n enabled=y phases=2 Linecode=1P_UG_AL_1/0_Brenau_0_416_0_2_2

New Line.l(r:udm5955-udt1460lv) Units=km Length=0.0266078 bus1=udt1460lv.1.2 bus2=udm5955.1.2 switch=n enabled=y phases=2 Linecode=1P_UG_AL_1/0_Brenau_0_416_0_2_2

New Line.l(r:p1ulv3184-udt1461lv) Units=km Length=0.0109531 bus1=udt1461lv.1.2 bus2=p1ulv3184.1.2 switch=n enabled=y phases=2 Linecode=1P_UG_AL_1/0_Brenau_0_416_0_2_2

New Line.l(r:p1ulv3183-udm5956) Units=km Length=0.015016600000000001 bus1=udm5956.1.2 bus2=p1ulv3183.1.2 switch=n enabled=y phases=2 Linecode=1P_UG_AL_1/0_Brenau_0_416_0_2_2

New Line.l(r:udm5956-udt1461lv) Units=km Length=0.00891897 bus1=udt1461lv.1.2 bus2=udm5956.1.2 switch=n enabled=y phases=2 Linecode=1P_UG_AL_1/0_Brenau_0_416_0_2_2

New Line.l(r:p1ulv3185-udm5958) Units=km Length=0.018678 bus1=udm5958.1.2 bus2=p1ulv3185.1.2 switch=n enabled=y phases=2 Linecode=1P_UG_AL_1/0_Brenau_0_416_0_2_2

New Line.l(r:p1ulv3186-udm5959) Units=km Length=0.0112524 bus1=udm5959.1.2 bus2=p1ulv3186.1.2 switch=n enabled=y phases=2 Linecode=1P_UG_AL_2/0_Converse_0_416_0_2_2

New Line.l(r:udm5958-udm5959) Units=km Length=0.00891629 bus1=udm5958.1.2 bus2=udm5959.1.2 switch=n enabled=y phases=2 Linecode=1P_UG_AL_2/0_Converse_0_416_0_2_2

New Line.l(r:udm5958-udt1461lv) Units=km Length=0.00890934 bus1=udt1461lv.1.2 bus2=udm5958.1.2 switch=n enabled=y phases=2 Linecode=1P_UG_AL_4/0_Sweetbriar_0_416_0_2_2

New Line.l(r:p1ulv34710-udt1849lv) Units=km Length=0.0241158 bus1=udt1849lv.1.2 bus2=p1ulv34710.1.2 switch=n enabled=y phases=2 Linecode=1P_OH_AL_2/0_Rucina_0_416_0_2_2

New Line.l(r:p1ulv4109-udm7359) Units=km Length=0.0512525 bus1=udm7359.1.2 bus2=p1ulv4109.1.2 switch=n enabled=y phases=2 Linecode=1P_OH_AL_4/0_Zuzara_0_416_0_2_2

New Line.l(r:p1ulv50960-udm7363) Units=km Length=0.0227424 bus1=udm7363.1.2 bus2=p1ulv50960.1.2 switch=n enabled=y phases=2 Linecode=1P_OH_AL_2/0_Rucina_0_416_0_2_2

New Line.l(r:udm7359-udm7363) Units=km Length=0.0258592 bus1=udm7359.1.2 bus2=udm7363.1.2 switch=n enabled=y phases=2 Linecode=1P_OH_AL_2/0_Rucina_0_416_0_2_2

New Line.l(r:udm7359-udt1849lv) Units=km Length=0.0116755 bus1=udt1849lv.1.2 bus2=udm7359.1.2 switch=n enabled=y phases=2 Linecode=1P_OH_AL_2/0_Rucina_0_416_0_2_2

New Line.l(r:p1ulv30444-udm7360) Units=km Length=0.0237317 bus1=udm7360.1.2 bus2=p1ulv30444.1.2 switch=n enabled=y phases=2 Linecode=1P_OH_AL_2/0_Rucina_0_416_0_2_2

New Line.l(r:p1ulv49123-udm7362) Units=km Length=0.022813700000000003 bus1=udm7362.1.2 bus2=p1ulv49123.1.2 switch=n enabled=y phases=2 Linecode=1P_OH_AL_2/0_Rucina_0_416_0_2_2

New Line.l(r:udm7360-udm7362) Units=km Length=0.0301095 bus1=udm7360.1.2 bus2=udm7362.1.2 switch=n enabled=y phases=2 Linecode=1P_OH_AL_4/0_Zuzara_0_416_0_2_2

New Line.l(r:udm7360-udt1849lv) Units=km Length=0.0116687 bus1=udt1849lv.1.2 bus2=udm7360.1.2 switch=n enabled=y phases=2 Linecode=1P_OH_AL_2/0_Rucina_0_416_0_2_2

New Line.l(r:p1ulv23272-udt2184lv) Units=km Length=0.021932800000000002 bus1=udt2184lv.1.2 bus2=p1ulv23272.1.2 switch=n enabled=y phases=2 Linecode=1P_OH_AL_2/0_Rucina_0_416_0_2_2

New Line.l(r:p1ulv25166-udt2184lv) Units=km Length=0.0219105 bus1=udt2184lv.1.2 bus2=p1ulv25166.1.2 switch=n enabled=y phases=2 Linecode=1P_OH_AL_2/0_Rucina_0_416_0_2_2

New Line.l(r:p1ulv4822-udm8762) Units=km Length=0.0265404 bus1=udm8762.1.2 bus2=p1ulv4822.1.2 switch=n enabled=y phases=2 Linecode=1P_OH_AL_2/0_Rucina_0_416_0_2_2

New Line.l(r:udm8762-udt2184lv) Units=km Length=0.0120245 bus1=udt2184lv.1.2 bus2=udm8762.1.2 switch=n enabled=y phases=2 Linecode=1P_OH_AL_2/0_Rucina_0_416_0_2_2

New Line.l(r:p1ulv15506-udt2191lv) Units=km Length=0.0203234 bus1=udt2191lv.1.2 bus2=p1ulv15506.1.2 switch=n enabled=y phases=2 Linecode=1P_OH_AL_2/0_Rucina_0_416_0_2_2

New Line.l(r:p1ulv4830-udm8787) Units=km Length=0.032379 bus1=udm8787.1.2 bus2=p1ulv4830.1.2 switch=n enabled=y phases=2 Linecode=1P_OH_AL_4/0_Zuzara_0_416_0_2_2

New Line.l(r:udm8787-udt2191lv) Units=km Length=0.0198107 bus1=udt2191lv.1.2 bus2=udm8787.1.2 switch=n enabled=y phases=2 Linecode=1P_OH_AL_2/0_Rucina_0_416_0_2_2

New Line.l(r:p1ulv31120-udm8789) Units=km Length=0.0187315 bus1=udm8789.1.2 bus2=p1ulv31120.1.2 switch=n enabled=y phases=2 Linecode=1P_OH_AL_2/0_Rucina_0_416_0_2_2

New Line.l(r:udm8789-udt2191lv) Units=km Length=0.0198106 bus1=udt2191lv.1.2 bus2=udm8789.1.2 switch=n enabled=y phases=2 Linecode=1P_OH_AL_2/0_Rucina_0_416_0_2_2

New Line.l(r:p1ulv4832-udt2193lv) Units=km Length=0.0316639 bus1=udt2193lv.1.2 bus2=p1ulv4832.1.2 switch=n enabled=y phases=2 Linecode=1P_OH_AL_4/0_Zuzara_0_416_0_2_2

New Line.l(r:p1ulv27505-udt2193lv) Units=km Length=0.0297213 bus1=udt2193lv.1.2 bus2=p1ulv27505.1.2 switch=n enabled=y phases=2 Linecode=1P_OH_AL_4/0_Zuzara_0_416_0_2_2

New Line.l(r:p1ulv5315-udt2408lv) Units=km Length=0.0794957 bus1=udt2408lv.1.2 bus2=p1ulv5315.1.2 switch=n enabled=y phases=2 Linecode=1P_OH_AL_4/0_Zuzara_0_416_0_2_2

New Line.l(r:p1ulv7015-udm9636) Units=km Length=0.0501465 bus1=udm9636.1.2 bus2=p1ulv7015.1.2 switch=n enabled=y phases=2 Linecode=1P_OH_AL_4/0_Zuzara_0_416_0_2_2

New Line.l(r:udm9636-udt2408lv) Units=km Length=0.0197803 bus1=udt2408lv.1.2 bus2=udm9636.1.2 switch=n enabled=y phases=2 Linecode=1P_OH_AL_2/0_Rucina_0_416_0_2_2

New Line.l(r:p1ulv7036-udm9637) Units=km Length=0.050263100000000005 bus1=udm9637.1.2 bus2=p1ulv7036.1.2 switch=n enabled=y phases=2 Linecode=1P_OH_AL_4/0_Zuzara_0_416_0_2_2

New Line.l(r:udm9637-udt2408lv) Units=km Length=0.019791 bus1=udt2408lv.1.2 bus2=udm9637.1.2 switch=n enabled=y phases=2 Linecode=1P_OH_AL_2/0_Rucina_0_416_0_2_2

New Line.l(r:p1ulv5325-udm9660) Units=km Length=0.0523021 bus1=udm9660.1.2 bus2=p1ulv5325.1.2 switch=n enabled=y phases=2 Linecode=1P_OH_AL_4/0_Zuzara_0_416_0_2_2

New Line.l(r:udm9660-udt2416lv) Units=km Length=0.0586743 bus1=udt2416lv.1.2 bus2=udm9660.1.2 switch=n enabled=y phases=2 Linecode=1P_OH_AL_4/0_Zuzara_0_416_0_2_2

New Line.l(r:p1ulv5403-udm9661) Units=km Length=0.011459900000000002 bus1=udm9661.1.2 bus2=p1ulv5403.1.2 switch=n enabled=y phases=2 Linecode=1P_OH_AL_2/0_Rucina_0_416_0_2_2

New Line.l(r:p1ulv41103-udm9661) Units=km Length=0.0391774 bus1=udm9661.1.2 bus2=p1ulv41103.1.2 switch=n enabled=y phases=2 Linecode=1P_OH_AL_4/0_Zuzara_0_416_0_2_2

New Line.l(r:p1ulv46125-udm9661) Units=km Length=0.0132322 bus1=udm9661.1.2 bus2=p1ulv46125.1.2 switch=n enabled=y phases=2 Linecode=1P_OH_AL_2/0_Rucina_0_416_0_2_2

New Line.l(r:udm9661-udt2416lv) Units=km Length=0.019083 bus1=udt2416lv.1.2 bus2=udm9661.1.2 switch=n enabled=y phases=2 Linecode=1P_OH_AL_2/0_Rucina_0_416_0_2_2

New Line.l(r:p1ulv5334-udm9680) Units=km Length=0.0183229 bus1=udm9680.1.2 bus2=p1ulv5334.1.2 switch=n enabled=y phases=2 Linecode=1P_OH_AL_2/0_Rucina_0_416_0_2_2

New Line.l(r:udm9680-udt2423lv) Units=km Length=0.029291500000000005 bus1=udt2423lv.1.2 bus2=udm9680.1.2 switch=n enabled=y phases=2 Linecode=1P_OH_AL_4/0_Zuzara_0_416_0_2_2

New Line.l(r:p1ulv5341-udm9681) Units=km Length=0.0195484 bus1=udm9681.1.2 bus2=p1ulv5341.1.2 switch=n enabled=y phases=2 Linecode=1P_OH_AL_2/0_Rucina_0_416_0_2_2

New Line.l(r:udm9681-udt2423lv) Units=km Length=0.015606200000000002 bus1=udt2423lv.1.2 bus2=udm9681.1.2 switch=n enabled=y phases=2 Linecode=1P_OH_AL_2/0_Rucina_0_416_0_2_2

New Line.l(r:p1ulv5339-udt2427lv) Units=km Length=0.0355066 bus1=udt2427lv.1.2 bus2=p1ulv5339.1.2 switch=n enabled=y phases=2 Linecode=1P_OH_AL_4/0_Zuzara_0_416_0_2_2

New Line.l(r:p1ulv5340-udt2427lv) Units=km Length=0.0319899 bus1=udt2427lv.1.2 bus2=p1ulv5340.1.2 switch=n enabled=y phases=2 Linecode=1P_OH_AL_4/0_Zuzara_0_416_0_2_2

New Line.l(r:p1ulv5342-udt2428lv) Units=km Length=0.0398377 bus1=udt2428lv.1.2 bus2=p1ulv5342.1.2 switch=n enabled=y phases=2 Linecode=1P_OH_AL_4/0_Zuzara_0_416_0_2_2

New Line.l(r:p1ulv5354-udm9694) Units=km Length=0.038287 bus1=udm9694.1.2 bus2=p1ulv5354.1.2 switch=n enabled=y phases=2 Linecode=1P_OH_AL_4/0_Zuzara_0_416_0_2_2

New Line.l(r:udm9694-udt2428lv) Units=km Length=0.0381054 bus1=udt2428lv.1.2 bus2=udm9694.1.2 switch=n enabled=y phases=2 Linecode=1P_OH_AL_4/0_Zuzara_0_416_0_2_2

New Line.l(r:p1ulv36073-udm9695) Units=km Length=0.0393205 bus1=udm9695.1.2 bus2=p1ulv36073.1.2 switch=n enabled=y phases=2 Linecode=1P_OH_AL_4/0_Zuzara_0_416_0_2_2

New Line.l(r:udm9695-udt2428lv) Units=km Length=0.0380955 bus1=udt2428lv.1.2 bus2=udm9695.1.2 switch=n enabled=y phases=2 Linecode=1P_OH_AL_4/0_Zuzara_0_416_0_2_2

New Line.l(r:p1ulv5359-udt2429lv) Units=km Length=0.0374224 bus1=udt2429lv.1.2 bus2=p1ulv5359.1.2 switch=n enabled=y phases=2 Linecode=1P_OH_AL_4/0_Zuzara_0_416_0_2_2

New Line.l(r:p1ulv5343-udm9696) Units=km Length=0.0374021 bus1=udm9696.1.2 bus2=p1ulv5343.1.2 switch=n enabled=y phases=2 Linecode=1P_OH_AL_4/0_Zuzara_0_416_0_2_2

New Line.l(r:udm9696-udt2429lv) Units=km Length=0.032234000000000006 bus1=udt2429lv.1.2 bus2=udm9696.1.2 switch=n enabled=y phases=2 Linecode=1P_OH_AL_4/0_Zuzara_0_416_0_2_2

New Line.l(r:p1ulv5348-udm9697) Units=km Length=0.0374108 bus1=udm9697.1.2 bus2=p1ulv5348.1.2 switch=n enabled=y phases=2 Linecode=1P_OH_AL_4/0_Zuzara_0_416_0_2_2

New Line.l(r:udm9697-udt2429lv) Units=km Length=0.032244 bus1=udt2429lv.1.2 bus2=udm9697.1.2 switch=n enabled=y phases=2 Linecode=1P_OH_AL_4/0_Zuzara_0_416_0_2_2

New Line.l(r:p1ulv5344-udt2430lv) Units=km Length=0.0242532 bus1=udt2430lv.1.2 bus2=p1ulv5344.1.2 switch=n enabled=y phases=2 Linecode=1P_OH_AL_2/0_Rucina_0_416_0_2_2

New Line.l(r:p1ulv25735-udm9700) Units=km Length=0.0241179 bus1=udm9700.1.2 bus2=p1ulv25735.1.2 switch=n enabled=y phases=2 Linecode=1P_OH_AL_2/0_Rucina_0_416_0_2_2

New Line.l(r:udm9700-udt2430lv) Units=km Length=0.039034 bus1=udt2430lv.1.2 bus2=udm9700.1.2 switch=n enabled=y phases=2 Linecode=1P_OH_AL_4/0_Zuzara_0_416_0_2_2

New Line.l(r:p1ulv29838-udm9701) Units=km Length=0.0247401 bus1=udm9701.1.2 bus2=p1ulv29838.1.2 switch=n enabled=y phases=2 Linecode=1P_OH_AL_2/0_Rucina_0_416_0_2_2

New Line.l(r:udm9701-udt2430lv) Units=km Length=0.0390339 bus1=udt2430lv.1.2 bus2=udm9701.1.2 switch=n enabled=y phases=2 Linecode=1P_OH_AL_4/0_Zuzara_0_416_0_2_2

New Line.l(r:p1ulv42764-udt2431lv) Units=km Length=0.0116535 bus1=udt2431lv.1.2 bus2=p1ulv42764.1.2 switch=n enabled=y phases=2 Linecode=1P_OH_AL_2/0_Rucina_0_416_0_2_2

New Line.l(r:p1ulv5345-udm9702) Units=km Length=0.0204991 bus1=udm9702.1.2 bus2=p1ulv5345.1.2 switch=n enabled=y phases=2 Linecode=1P_OH_AL_2/0_Rucina_0_416_0_2_2

New Line.l(r:p1ulv5356-udm9704) Units=km Length=0.0245816 bus1=udm9704.1.2 bus2=p1ulv5356.1.2 switch=n enabled=y phases=2 Linecode=1P_OH_AL_2/0_Rucina_0_416_0_2_2

New Line.l(r:udm9702-udm9704) Units=km Length=0.013563 bus1=udm9702.1.2 bus2=udm9704.1.2 switch=n enabled=y phases=2 Linecode=1P_OH_AL_2/0_Rucina_0_416_0_2_2

New Line.l(r:udm9702-udt2431lv) Units=km Length=0.060949100000000006 bus1=udt2431lv.1.2 bus2=udm9702.1.2 switch=n enabled=y phases=2 Linecode=1P_OH_AL_4/0_Zuzara_0_416_0_2_2

New Line.l(r:p1ulv47452-udm9706) Units=km Length=0.0180319 bus1=udm9706.1.2 bus2=p1ulv47452.1.2 switch=n enabled=y phases=2 Linecode=1P_OH_AL_2/0_Rucina_0_416_0_2_2

New Line.l(r:p1ulv5355-udm9703) Units=km Length=0.0218536 bus1=udm9703.1.2 bus2=p1ulv5355.1.2 switch=n enabled=y phases=2 Linecode=1P_OH_AL_2/0_Rucina_0_416_0_2_2

New Line.l(r:udm9703-udm9706) Units=km Length=0.0102788 bus1=udm9706.1.2 bus2=udm9703.1.2 switch=n enabled=y phases=2 Linecode=1P_OH_AL_2/0_Rucina_0_416_0_2_2

New Line.l(r:udm9706-udt2431lv) Units=km Length=0.0264799 bus1=udt2431lv.1.2 bus2=udm9706.1.2 switch=n enabled=y phases=2 Linecode=1P_OH_AL_2/0_Rucina_0_416_0_2_2

New Line.l(r:p1ulv5346-udt2432lv) Units=km Length=0.03455840000000001 bus1=udt2432lv.1.2 bus2=p1ulv5346.1.2 switch=n enabled=y phases=2 Linecode=1P_OH_AL_4/0_Zuzara_0_416_0_2_2

New Line.l(r:p1ulv33566-udt2432lv) Units=km Length=0.0379689 bus1=udt2432lv.1.2 bus2=p1ulv33566.1.2 switch=n enabled=y phases=2 Linecode=1P_OH_AL_4/0_Zuzara_0_416_0_2_2

New Line.l(r:p1ulv38346-udt2432lv) Units=km Length=0.037989300000000004 bus1=udt2432lv.1.2 bus2=p1ulv38346.1.2 switch=n enabled=y phases=2 Linecode=1P_OH_AL_4/0_Zuzara_0_416_0_2_2

New Line.l(r:p1ulv41310-udm9710) Units=km Length=0.029079400000000002 bus1=udm9710.1.2 bus2=p1ulv41310.1.2 switch=n enabled=y phases=2 Linecode=1P_OH_AL_4/0_Zuzara_0_416_0_2_2

New Line.l(r:udm9710-udt2432lv) Units=km Length=0.0159181 bus1=udt2432lv.1.2 bus2=udm9710.1.2 switch=n enabled=y phases=2 Linecode=1P_OH_AL_2/0_Rucina_0_416_0_2_2

New Line.l(r:p1ulv35220-udt2433lv) Units=km Length=0.03757 bus1=udt2433lv.1.2 bus2=p1ulv35220.1.2 switch=n enabled=y phases=2 Linecode=1P_OH_AL_4/0_Zuzara_0_416_0_2_2

New Line.l(r:p1ulv5347-udm9711) Units=km Length=0.0234413 bus1=udm9711.1.2 bus2=p1ulv5347.1.2 switch=n enabled=y phases=2 Linecode=1P_OH_AL_2/0_Rucina_0_416_0_2_2

New Line.l(r:p1ulv33817-udm9711) Units=km Length=0.0189917 bus1=udm9711.1.2 bus2=p1ulv33817.1.2 switch=n enabled=y phases=2 Linecode=1P_OH_AL_2/0_Rucina_0_416_0_2_2

New Line.l(r:udm9711-udt2433lv) Units=km Length=0.019512 bus1=udt2433lv.1.2 bus2=udm9711.1.2 switch=n enabled=y phases=2 Linecode=1P_OH_AL_2/0_Rucina_0_416_0_2_2

New Line.l(r:p1ulv26611-udm9712) Units=km Length=0.0320147 bus1=udm9712.1.2 bus2=p1ulv26611.1.2 switch=n enabled=y phases=2 Linecode=1P_OH_AL_4/0_Zuzara_0_416_0_2_2

New Line.l(r:udm9712-udt2433lv) Units=km Length=0.019522 bus1=udt2433lv.1.2 bus2=udm9712.1.2 switch=n enabled=y phases=2 Linecode=1P_OH_AL_2/0_Rucina_0_416_0_2_2

New Line.l(r:p1ulv5349-udt2434lv) Units=km Length=0.0105969 bus1=udt2434lv.1.2 bus2=p1ulv5349.1.2 switch=n enabled=y phases=2 Linecode=1P_OH_AL_2/0_Rucina_0_416_0_2_2

New Line.l(r:p1ulv36962-udt2434lv) Units=km Length=0.013253400000000002 bus1=udt2434lv.1.2 bus2=p1ulv36962.1.2 switch=n enabled=y phases=2 Linecode=1P_OH_AL_2/0_Rucina_0_416_0_2_2

New Line.l(r:p1ulv5350-udm9717) Units=km Length=0.0422518 bus1=udm9717.1.2 bus2=p1ulv5350.1.2 switch=n enabled=y phases=2 Linecode=1P_OH_AL_4/0_Zuzara_0_416_0_2_2

New Line.l(r:udm9717-udt2435lv) Units=km Length=0.0161169 bus1=udt2435lv.1.2 bus2=udm9717.1.2 switch=n enabled=y phases=2 Linecode=1P_OH_AL_2/0_Rucina_0_416_0_2_2

New Line.l(r:p1ulv26189-udm9718) Units=km Length=0.041142 bus1=udm9718.1.2 bus2=p1ulv26189.1.2 switch=n enabled=y phases=2 Linecode=1P_OH_AL_4/0_Zuzara_0_416_0_2_2

New Line.l(r:udm9718-udt2435lv) Units=km Length=0.0161271 bus1=udt2435lv.1.2 bus2=udm9718.1.2 switch=n enabled=y phases=2 Linecode=1P_OH_AL_2/0_Rucina_0_416_0_2_2

New Line.l(r:p1ulv34447-udt2436lv) Units=km Length=0.0159355 bus1=udt2436lv.1.2 bus2=p1ulv34447.1.2 switch=n enabled=y phases=2 Linecode=1P_OH_AL_2/0_Rucina_0_416_0_2_2

New Line.l(r:p1ulv5351-udm9719) Units=km Length=0.0197678 bus1=udm9719.1.2 bus2=p1ulv5351.1.2 switch=n enabled=y phases=2 Linecode=1P_OH_AL_2/0_Rucina_0_416_0_2_2

New Line.l(r:udm9719-udt2436lv) Units=km Length=0.0633795 bus1=udt2436lv.1.2 bus2=udm9719.1.2 switch=n enabled=y phases=2 Linecode=1P_OH_AL_4/0_Zuzara_0_416_0_2_2

New Line.l(r:p1ulv26761-udm9720) Units=km Length=0.01856 bus1=udm9720.1.2 bus2=p1ulv26761.1.2 switch=n enabled=y phases=2 Linecode=1P_OH_AL_2/0_Rucina_0_416_0_2_2

New Line.l(r:udm9720-udt2436lv) Units=km Length=0.0169464 bus1=udt2436lv.1.2 bus2=udm9720.1.2 switch=n enabled=y phases=2 Linecode=1P_OH_AL_2/0_Rucina_0_416_0_2_2

New Line.l(r:p1ulv5358-udt2437lv) Units=km Length=0.025781300000000004 bus1=udt2437lv.1.2 bus2=p1ulv5358.1.2 switch=n enabled=y phases=2 Linecode=1P_UG_AL_1/0_Brenau_0_416_0_2_2

New Line.l(r:p1ulv5353-udm9722) Units=km Length=0.0124436 bus1=udm9722.1.2 bus2=p1ulv5353.1.2 switch=n enabled=y phases=2 Linecode=1P_UG_AL_4/0_Sweetbriar_0_416_0_2_2

New Line.l(r:udm9722-udt2437lv) Units=km Length=0.00963251 bus1=udt2437lv.1.2 bus2=udm9722.1.2 switch=n enabled=y phases=2 Linecode=1P_UG_AL_4/0_Sweetbriar_0_416_0_2_2

New Line.l(r:p1ulv49228-udt2438lv) Units=km Length=0.0114521 bus1=udt2438lv.1.2 bus2=p1ulv49228.1.2 switch=n enabled=y phases=2 Linecode=1P_OH_AL_2/0_Rucina_0_416_0_2_2

New Line.l(r:p1ulv5357-udm9724) Units=km Length=0.0153612 bus1=udm9724.1.2 bus2=p1ulv5357.1.2 switch=n enabled=y phases=2 Linecode=1P_OH_AL_2/0_Rucina_0_416_0_2_2

New Line.l(r:udm9724-udt2438lv) Units=km Length=0.019750400000000005 bus1=udt2438lv.1.2 bus2=udm9724.1.2 switch=n enabled=y phases=2 Linecode=1P_OH_AL_2/0_Rucina_0_416_0_2_2

New Line.l(r:p1ulv26323-udm9725) Units=km Length=0.022309800000000005 bus1=udm9725.1.2 bus2=p1ulv26323.1.2 switch=n enabled=y phases=2 Linecode=1P_UG_AL_1/0_Brenau_0_416_0_2_2

New Line.l(r:udm9725-udt2438lv) Units=km Length=0.05826 bus1=udt2438lv.1.2 bus2=udm9725.1.2 switch=n enabled=y phases=2 Linecode=1P_OH_AL_4/0_Zuzara_0_416_0_2_2
