New Load.load_p1ulv3149 conn=wye bus1=p1ulv3149.1.2 kV=0.2080002494301389 Vminpu=0.8 Vmaxpu=1.2 model=1 kW=3.39003 kvar=0.6901467391837689 Phases=2

New Load.load_p1ulv3150 conn=wye bus1=p1ulv3150.1.2 kV=0.2080002494301389 Vminpu=0.8 Vmaxpu=1.2 model=1 kW=12.35 kvar=0.9797575997503596 Phases=2

New Load.load_p1ulv3151 conn=wye bus1=p1ulv3151.1.2 kV=0.2080002494301389 Vminpu=0.8 Vmaxpu=1.2 model=1 kW=19.3 kvar=0.8709078525812284 Phases=2

New Load.load_p1ulv3152 conn=wye bus1=p1ulv3152.1.2 kV=0.2080002494301389 Vminpu=0.8 Vmaxpu=1.2 model=1 kW=4.11004 kvar=0.8410090147543001 Phases=2

New Load.load_p1ulv3153 conn=wye bus1=p1ulv3153.1.2 kV=0.2080002494301389 Vminpu=0.8 Vmaxpu=1.2 model=1 kW=20.0201 kvar=1.0193646293157332 Phases=2

New Load.load_p1ulv3154 conn=wye bus1=p1ulv3154.1.2 kV=0.2080002494301389 Vminpu=0.8 Vmaxpu=1.2 model=1 kW=12.08 kvar=0.9300188186367714 Phases=2

New Load.load_p1ulv3155 conn=wye bus1=p1ulv3155.1.2 kV=0.2080002494301389 Vminpu=0.8 Vmaxpu=1.2 model=1 kW=11.92 kvar=0.8998375215150975 Phases=2

New Load.load_p1ulv3156 conn=wye bus1=p1ulv3156.1.2 kV=0.2080002494301389 Vminpu=0.8 Vmaxpu=1.2 model=1 kW=11.43 kvar=0.8000826809384517 Phases=2

New Load.load_p1ulv3157 conn=wye bus1=p1ulv3157.1.2 kV=0.2080002494301389 Vminpu=0.8 Vmaxpu=1.2 model=1 kW=11.63 kvar=0.840798942398307 Phases=2

New Load.load_p1ulv3158 conn=wye bus1=p1ulv3158.1.2 kV=0.2080002494301389 Vminpu=0.8 Vmaxpu=1.2 model=1 kW=11.44 kvar=0.8000592452444024 Phases=2

New Load.load_p1ulv3159 conn=wye bus1=p1ulv3159.1.2 kV=0.2080002494301389 Vminpu=0.8 Vmaxpu=1.2 model=1 kW=11.79 kvar=0.8711297764663039 Phases=2

New Load.load_p1ulv3160 conn=wye bus1=p1ulv3160.1.2 kV=0.2080002494301389 Vminpu=0.8 Vmaxpu=1.2 model=1 kW=3.74004 kvar=0.7594475131176014 Phases=2

New Load.load_p1ulv3161 conn=wye bus1=p1ulv3161.1.2 kV=0.2080002494301389 Vminpu=0.8 Vmaxpu=1.2 model=1 kW=19.7901 kvar=0.9701519425997696 Phases=2

New Load.load_p1ulv3162 conn=wye bus1=p1ulv3162.1.2 kV=0.2080002494301389 Vminpu=0.8 Vmaxpu=1.2 model=1 kW=4.12004 kvar=0.8409115972996914 Phases=2

New Load.load_p1ulv3163 conn=wye bus1=p1ulv3163.1.2 kV=0.2080002494301389 Vminpu=0.8 Vmaxpu=1.2 model=1 kW=12.1501 kvar=0.9393556410179604 Phases=2

New Load.load_p1ulv3164 conn=wye bus1=p1ulv3164.1.2 kV=0.2080002494301389 Vminpu=0.8 Vmaxpu=1.2 model=1 kW=12.2701 kvar=0.9710930148829175 Phases=2

New Load.load_p1ulv3165 conn=wye bus1=p1ulv3165.1.2 kV=0.2080002494301389 Vminpu=0.8 Vmaxpu=1.2 model=1 kW=11.12 kvar=0.7407437090079797 Phases=2

New Load.load_p1ulv3166 conn=wye bus1=p1ulv3166.1.2 kV=0.2080002494301389 Vminpu=0.8 Vmaxpu=1.2 model=1 kW=4.98005 kvar=1.011242282890373 Phases=2

New Load.load_p1ulv3167 conn=wye bus1=p1ulv3167.1.2 kV=0.2080002494301389 Vminpu=0.8 Vmaxpu=1.2 model=1 kW=11.92 kvar=0.8998375215150975 Phases=2

New Load.load_p1ulv3168 conn=wye bus1=p1ulv3168.1.2 kV=0.2080002494301389 Vminpu=0.8 Vmaxpu=1.2 model=1 kW=11.78 kvar=0.8690991898599637 Phases=2

New Load.load_p1ulv3169 conn=wye bus1=p1ulv3169.1.2 kV=0.2080002494301389 Vminpu=0.8 Vmaxpu=1.2 model=1 kW=19.91 kvar=0.9995943979048163 Phases=2

New Load.load_p1ulv3170 conn=wye bus1=p1ulv3170.1.2 kV=0.2080002494301389 Vminpu=0.8 Vmaxpu=1.2 model=1 kW=5.35005 kvar=1.0891701731164982 Phases=2

New Load.load_p1ulv3171 conn=wye bus1=p1ulv3171.1.2 kV=0.2080002494301389 Vminpu=0.8 Vmaxpu=1.2 model=1 kW=11.64 kvar=0.8406709773712032 Phases=2

New Load.load_p1ulv3172 conn=wye bus1=p1ulv3172.1.2 kV=0.2080002494301389 Vminpu=0.8 Vmaxpu=1.2 model=1 kW=11.4 kvar=0.7898939222381405 Phases=2

New Load.load_p1ulv3173 conn=wye bus1=p1ulv3173.1.2 kV=0.2080002494301389 Vminpu=0.8 Vmaxpu=1.2 model=1 kW=12.0601 kvar=0.9307188593475932 Phases=2

New Load.load_p1ulv3174 conn=wye bus1=p1ulv3174.1.2 kV=0.2080002494301389 Vminpu=0.8 Vmaxpu=1.2 model=1 kW=3.91004 kvar=0.7898663736101474 Phases=2

New Load.load_p1ulv3175 conn=wye bus1=p1ulv3175.1.2 kV=0.2080002494301389 Vminpu=0.8 Vmaxpu=1.2 model=1 kW=11.37 kvar=0.7898859035382418 Phases=2

New Load.load_p1ulv3176 conn=wye bus1=p1ulv3176.1.2 kV=0.2080002494301389 Vminpu=0.8 Vmaxpu=1.2 model=1 kW=11.52 kvar=0.8205013197951115 Phases=2

New Load.load_p1ulv3177 conn=wye bus1=p1ulv3177.1.2 kV=0.2080002494301389 Vminpu=0.8 Vmaxpu=1.2 model=1 kW=11.61 kvar=0.8302683323425464 Phases=2

New Load.load_p1ulv3178 conn=wye bus1=p1ulv3178.1.2 kV=0.2080002494301389 Vminpu=0.8 Vmaxpu=1.2 model=1 kW=3.51004 kvar=0.7109053401536299 Phases=2

New Load.load_p1ulv3179 conn=wye bus1=p1ulv3179.1.2 kV=0.2080002494301389 Vminpu=0.8 Vmaxpu=1.2 model=1 kW=3.82004 kvar=0.7796807647859518 Phases=2

New Load.load_p1ulv3180 conn=wye bus1=p1ulv3179.1.2 kV=0.2080002494301389 Vminpu=0.8 Vmaxpu=1.2 model=1 kW=3.86004 kvar=0.7797658839270477 Phases=2

New Load.load_p1ulv3181 conn=wye bus1=p1ulv3181.1.2 kV=0.2080002494301389 Vminpu=0.8 Vmaxpu=1.2 model=1 kW=11.3 kvar=0.7696404396523686 Phases=2

New Load.load_p1ulv3182 conn=wye bus1=p1ulv3182.1.2 kV=0.2080002494301389 Vminpu=0.8 Vmaxpu=1.2 model=1 kW=11.41 kvar=0.7898663736101474 Phases=2

New Load.load_p1ulv3183 conn=wye bus1=p1ulv3183.1.2 kV=0.2080002494301389 Vminpu=0.8 Vmaxpu=1.2 model=1 kW=19.7501 kvar=0.969498386606295 Phases=2

New Load.load_p1ulv3184 conn=wye bus1=p1ulv3184.1.2 kV=0.2080002494301389 Vminpu=0.8 Vmaxpu=1.2 model=1 kW=4.57005 kvar=0.9303767534230621 Phases=2

New Load.load_p1ulv3185 conn=wye bus1=p1ulv3185.1.2 kV=0.2080002494301389 Vminpu=0.8 Vmaxpu=1.2 model=1 kW=19.6801 kvar=0.9503246847001716 Phases=2

New Load.load_p1ulv3186 conn=wye bus1=p1ulv3186.1.2 kV=0.2080002494301389 Vminpu=0.8 Vmaxpu=1.2 model=1 kW=4.27004 kvar=0.869300325420206 Phases=2

New Load.load_p1ulv3187 conn=wye bus1=p1ulv3186.1.2 kV=0.2080002494301389 Vminpu=0.8 Vmaxpu=1.2 model=1 kW=4.46004 kvar=0.910306540815263 Phases=2

New Load.load_p1ulv3188 conn=wye bus1=p1ulv3188.1.2 kV=0.2080002494301389 Vminpu=0.8 Vmaxpu=1.2 model=1 kW=11.5 kvar=0.8101474048239126 Phases=2

New Load.load_p1ulv3189 conn=wye bus1=p1ulv3189.1.2 kV=0.2080002494301389 Vminpu=0.8 Vmaxpu=1.2 model=1 kW=10.85 kvar=0.6802526048837334 Phases=2

New Load.load_p1ulv3190 conn=wye bus1=p1ulv3190.1.2 kV=0.2080002494301389 Vminpu=0.8 Vmaxpu=1.2 model=1 kW=3.81004 kvar=0.769665394243948 Phases=2

New Load.load_p1ulv3191 conn=wye bus1=p1ulv3191.1.2 kV=0.2080002494301389 Vminpu=0.8 Vmaxpu=1.2 model=1 kW=3.81004 kvar=0.769665394243948 Phases=2

New Load.load_p1ulv3192 conn=wye bus1=p1ulv3192.1.2 kV=0.2080002494301389 Vminpu=0.8 Vmaxpu=1.2 model=1 kW=11.97 kvar=0.9100165868800613 Phases=2

New Load.load_p1ulv3193 conn=wye bus1=p1ulv3193.1.2 kV=0.2080002494301389 Vminpu=0.8 Vmaxpu=1.2 model=1 kW=12.3601 kvar=0.9894153325398525 Phases=2

New Load.load_p1ulv3194 conn=wye bus1=p1ulv3194.1.2 kV=0.2080002494301389 Vminpu=0.8 Vmaxpu=1.2 model=1 kW=11.43 kvar=0.8000826809384517 Phases=2

New Load.load_p1ulv3195 conn=wye bus1=p1ulv3195.1.2 kV=0.2080002494301389 Vminpu=0.8 Vmaxpu=1.2 model=1 kW=11.72 kvar=0.8591212600552419 Phases=2

New Load.load_p1ulv3196 conn=wye bus1=p1ulv3196.1.2 kV=0.2080002494301389 Vminpu=0.8 Vmaxpu=1.2 model=1 kW=11.79 kvar=0.8711297764663039 Phases=2

New Load.load_p1ulv4109 conn=wye bus1=p1ulv4109.1.2 kV=0.2080002494301389 Vminpu=0.8 Vmaxpu=1.2 model=1 kW=10.7 kvar=0.6497938057886328 Phases=2

New Load.load_p1ulv4822 conn=wye bus1=p1ulv4822.1.2 kV=0.2080002494301389 Vminpu=0.8 Vmaxpu=1.2 model=1 kW=11.1 kvar=0.7291334744808246 Phases=2

New Load.load_p1ulv4830 conn=wye bus1=p1ulv4830.1.2 kV=0.2080002494301389 Vminpu=0.8 Vmaxpu=1.2 model=1 kW=11.32 kvar=0.7796807647859518 Phases=2

New Load.load_p1ulv4832 conn=wye bus1=p1ulv4832.1.2 kV=0.2080002494301389 Vminpu=0.8 Vmaxpu=1.2 model=1 kW=11.25 kvar=0.7595136983594827 Phases=2

New Load.load_p1ulv5315 conn=wye bus1=p1ulv5315.1.2 kV=0.2080002494301389 Vminpu=0.8 Vmaxpu=1.2 model=1 kW=10.79 kvar=0.6697886084538411 Phases=2

New Load.load_p1ulv5325 conn=wye bus1=p1ulv5325.1.2 kV=0.2080002494301389 Vminpu=0.8 Vmaxpu=1.2 model=1 kW=3.41003 kvar=0.6906498322195993 Phases=2

New Load.load_p1ulv5334 conn=wye bus1=p1ulv5334.1.2 kV=0.2080002494301389 Vminpu=0.8 Vmaxpu=1.2 model=1 kW=12.25 kvar=0.95955662038416 Phases=2

New Load.load_p1ulv5339 conn=wye bus1=p1ulv5339.1.2 kV=0.2080002494301389 Vminpu=0.8 Vmaxpu=1.2 model=1 kW=12.43 kvar=1.0010893498586726 Phases=2

New Load.load_p1ulv5340 conn=wye bus1=p1ulv5340.1.2 kV=0.2080002494301389 Vminpu=0.8 Vmaxpu=1.2 model=1 kW=13.5301 kvar=1.2307519796926671 Phases=2

New Load.load_p1ulv5341 conn=wye bus1=p1ulv5341.1.2 kV=0.2080002494301389 Vminpu=0.8 Vmaxpu=1.2 model=1 kW=12.8 kvar=1.0789911077515342 Phases=2

New Load.load_p1ulv5342 conn=wye bus1=p1ulv5342.1.2 kV=0.2080002494301389 Vminpu=0.8 Vmaxpu=1.2 model=1 kW=12.25 kvar=0.95955662038416 Phases=2

New Load.load_p1ulv5343 conn=wye bus1=p1ulv5343.1.2 kV=0.2080002494301389 Vminpu=0.8 Vmaxpu=1.2 model=1 kW=13.0001 kvar=1.119709405024463 Phases=2

New Load.load_p1ulv5344 conn=wye bus1=p1ulv5344.1.2 kV=0.2080002494301389 Vminpu=0.8 Vmaxpu=1.2 model=1 kW=3.41003 kvar=0.6906498322195993 Phases=2

New Load.load_p1ulv5345 conn=wye bus1=p1ulv5345.1.2 kV=0.2080002494301389 Vminpu=0.8 Vmaxpu=1.2 model=1 kW=4.18004 kvar=0.8509780077632708 Phases=2

New Load.load_p1ulv5346 conn=wye bus1=p1ulv5346.1.2 kV=0.2080002494301389 Vminpu=0.8 Vmaxpu=1.2 model=1 kW=14.0601 kvar=1.3286426350644502 Phases=2

New Load.load_p1ulv5347 conn=wye bus1=p1ulv5347.1.2 kV=0.2080002494301389 Vminpu=0.8 Vmaxpu=1.2 model=1 kW=10.99 kvar=0.7105048699136965 Phases=2

New Load.load_p1ulv5348 conn=wye bus1=p1ulv5348.1.2 kV=0.2080002494301389 Vminpu=0.8 Vmaxpu=1.2 model=1 kW=11.28 kvar=0.7695454848435601 Phases=2

New Load.load_p1ulv5349 conn=wye bus1=p1ulv5349.1.2 kV=0.2080002494301389 Vminpu=0.8 Vmaxpu=1.2 model=1 kW=12.9701 kvar=1.110741026601035 Phases=2

New Load.load_p1ulv5350 conn=wye bus1=p1ulv5350.1.2 kV=0.2080002494301389 Vminpu=0.8 Vmaxpu=1.2 model=1 kW=12.3401 kvar=0.9802786838926555 Phases=2

New Load.load_p1ulv5351 conn=wye bus1=p1ulv5351.1.2 kV=0.2080002494301389 Vminpu=0.8 Vmaxpu=1.2 model=1 kW=11.47 kvar=0.8102961810428216 Phases=2

New Load.load_p1ulv5353 conn=wye bus1=p1ulv5353.1.2 kV=0.2080002494301389 Vminpu=0.8 Vmaxpu=1.2 model=1 kW=18.860200000000003 kvar=3.8297269512894476 Phases=2

New Load.load_p1ulv5354 conn=wye bus1=p1ulv5354.1.2 kV=0.2080002494301389 Vminpu=0.8 Vmaxpu=1.2 model=1 kW=1.70002 kvar=0.3398297485169116 Phases=2

New Load.load_p1ulv5355 conn=wye bus1=p1ulv5355.1.2 kV=0.2080002494301389 Vminpu=0.8 Vmaxpu=1.2 model=1 kW=12.6301 kvar=1.0390137833913942 Phases=2

New Load.load_p1ulv5356 conn=wye bus1=p1ulv5356.1.2 kV=0.2080002494301389 Vminpu=0.8 Vmaxpu=1.2 model=1 kW=11.91 kvar=0.890871270441145 Phases=2

New Load.load_p1ulv5357 conn=wye bus1=p1ulv5357.1.2 kV=0.2080002494301389 Vminpu=0.8 Vmaxpu=1.2 model=1 kW=11.58 kvar=0.8306198770333432 Phases=2

New Load.load_p1ulv5358 conn=wye bus1=p1ulv5358.1.2 kV=0.2080002494301389 Vminpu=0.8 Vmaxpu=1.2 model=1 kW=12.18 kvar=0.9503246847001716 Phases=2

New Load.load_p1ulv5359 conn=wye bus1=p1ulv5359.1.2 kV=0.2080002494301389 Vminpu=0.8 Vmaxpu=1.2 model=1 kW=6.820070000000001 kvar=1.3813016897874575 Phases=2

New Load.load_p1ulv5360 conn=wye bus1=p1ulv5360.1.2 kV=0.2080002494301389 Vminpu=0.8 Vmaxpu=1.2 model=1 kW=10.98 kvar=0.71028378024263 Phases=2

New Load.load_p1ulv5362 conn=wye bus1=p1ulv5362.1.2 kV=0.2080002494301389 Vminpu=0.8 Vmaxpu=1.2 model=1 kW=4.2400400000000005 kvar=0.8609768434346036 Phases=2

New Load.load_p1ulv5363 conn=wye bus1=p1ulv5363.1.2 kV=0.2080002494301389 Vminpu=0.8 Vmaxpu=1.2 model=1 kW=11.75 kvar=0.8607811112883423 Phases=2

New Load.load_p1ulv5364 conn=wye bus1=p1ulv5364.1.2 kV=0.2080002494301389 Vminpu=0.8 Vmaxpu=1.2 model=1 kW=12.92 kvar=1.1005880935693348 Phases=2

New Load.load_p1ulv5365 conn=wye bus1=p1ulv5365.1.2 kV=0.2080002494301389 Vminpu=0.8 Vmaxpu=1.2 model=1 kW=13.1001 kvar=1.1400675357543906 Phases=2

New Load.load_p1ulv5366 conn=wye bus1=p1ulv5366.1.2 kV=0.2080002494301389 Vminpu=0.8 Vmaxpu=1.2 model=1 kW=14.0001 kvar=1.319895508227272 Phases=2

New Load.load_p1ulv5367 conn=wye bus1=p1ulv5367.1.2 kV=0.2080002494301389 Vminpu=0.8 Vmaxpu=1.2 model=1 kW=8.09008 kvar=1.6385229439750197 Phases=2

New Load.load_p1ulv5368 conn=wye bus1=p1ulv5368.1.2 kV=0.2080002494301389 Vminpu=0.8 Vmaxpu=1.2 model=1 kW=5.36005 kvar=1.091205986189491 Phases=2

New Load.load_p1ulv5369 conn=wye bus1=p1ulv5369.1.2 kV=0.2080002494301389 Vminpu=0.8 Vmaxpu=1.2 model=1 kW=15.7101 kvar=1.6714188194316502 Phases=2

New Load.load_p1ulv5370 conn=wye bus1=p1ulv5370.1.2 kV=0.2080002494301389 Vminpu=0.8 Vmaxpu=1.2 model=1 kW=12.7001 kvar=1.061344635376904 Phases=2

New Load.load_p1ulv5371 conn=wye bus1=p1ulv5371.1.2 kV=0.2080002494301389 Vminpu=0.8 Vmaxpu=1.2 model=1 kW=12.76 kvar=1.070847855459563 Phases=2

New Load.load_p1ulv5372 conn=wye bus1=p1ulv5372.1.2 kV=0.2080002494301389 Vminpu=0.8 Vmaxpu=1.2 model=1 kW=12.8201 kvar=1.0802822275059345 Phases=2

New Load.load_p1ulv5373 conn=wye bus1=p1ulv5373.1.2 kV=0.2080002494301389 Vminpu=0.8 Vmaxpu=1.2 model=1 kW=15.8101 kvar=1.6917769501615778 Phases=2

New Load.load_p1ulv5374 conn=wye bus1=p1ulv5374.1.2 kV=0.2080002494301389 Vminpu=0.8 Vmaxpu=1.2 model=1 kW=13.7101 kvar=1.2610064660568046 Phases=2

New Load.load_p1ulv5375 conn=wye bus1=p1ulv5375.1.2 kV=0.2080002494301389 Vminpu=0.8 Vmaxpu=1.2 model=1 kW=13.2301 kvar=1.1605367042542845 Phases=2

New Load.load_p1ulv5376 conn=wye bus1=p1ulv5376.1.2 kV=0.2080002494301389 Vminpu=0.8 Vmaxpu=1.2 model=1 kW=13.3801 kvar=2.7169451851490414 Phases=2

New Load.load_p1ulv5377 conn=wye bus1=p1ulv5377.1.2 kV=0.2080002494301389 Vminpu=0.8 Vmaxpu=1.2 model=1 kW=19.0502 kvar=3.868308096809909 Phases=2

New Load.load_p1ulv5378 conn=wye bus1=p1ulv5378.1.2 kV=0.2080002494301389 Vminpu=0.8 Vmaxpu=1.2 model=1 kW=5.890060000000001 kvar=1.199106114871181 Phases=2

New Load.load_p1ulv5379 conn=wye bus1=p1ulv5379.1.2 kV=0.2080002494301389 Vminpu=0.8 Vmaxpu=1.2 model=1 kW=13.9001 kvar=1.2995876115772655 Phases=2

New Load.load_p1ulv5380 conn=wye bus1=p1ulv5380.1.2 kV=0.2080002494301389 Vminpu=0.8 Vmaxpu=1.2 model=1 kW=15.7001 kvar=1.6693830063586574 Phases=2

New Load.load_p1ulv5381 conn=wye bus1=p1ulv5381.1.2 kV=0.2080002494301389 Vminpu=0.8 Vmaxpu=1.2 model=1 kW=6.26006 kvar=1.2711593990885048 Phases=2

New Load.load_p1ulv5382 conn=wye bus1=p1ulv5382.1.2 kV=0.2080002494301389 Vminpu=0.8 Vmaxpu=1.2 model=1 kW=12.9101 kvar=1.101385051554455 Phases=2

New Load.load_p1ulv5383 conn=wye bus1=p1ulv5383.1.2 kV=0.2080002494301389 Vminpu=0.8 Vmaxpu=1.2 model=1 kW=12.12 kvar=0.940555818788026 Phases=2

New Load.load_p1ulv5384 conn=wye bus1=p1ulv5384.1.2 kV=0.2080002494301389 Vminpu=0.8 Vmaxpu=1.2 model=1 kW=12.6101 kvar=1.0403106593646716 Phases=2

New Load.load_p1ulv5385 conn=wye bus1=p1ulv5385.1.2 kV=0.2080002494301389 Vminpu=0.8 Vmaxpu=1.2 model=1 kW=4.52005 kvar=0.9201976880580982 Phases=2

New Load.load_p1ulv5386 conn=wye bus1=p1ulv5386.1.2 kV=0.2080002494301389 Vminpu=0.8 Vmaxpu=1.2 model=1 kW=6.00006 kvar=1.2215000586741016 Phases=2

New Load.load_p1ulv5387 conn=wye bus1=p1ulv5387.1.2 kV=0.2080002494301389 Vminpu=0.8 Vmaxpu=1.2 model=1 kW=4.05004 kvar=0.8202741461167985 Phases=2

New Load.load_p1ulv5388 conn=wye bus1=p1ulv5388.1.2 kV=0.2080002494301389 Vminpu=0.8 Vmaxpu=1.2 model=1 kW=11.72 kvar=0.8591212600552419 Phases=2

New Load.load_p1ulv5389 conn=wye bus1=p1ulv5389.1.2 kV=0.2080002494301389 Vminpu=0.8 Vmaxpu=1.2 model=1 kW=13.3201 kvar=1.1787648385814788 Phases=2

New Load.load_p1ulv5390 conn=wye bus1=p1ulv5390.1.2 kV=0.2080002494301389 Vminpu=0.8 Vmaxpu=1.2 model=1 kW=14.6201 kvar=1.449513158662365 Phases=2

New Load.load_p1ulv5391 conn=wye bus1=p1ulv5391.1.2 kV=0.2080002494301389 Vminpu=0.8 Vmaxpu=1.2 model=1 kW=14.0401 kvar=1.3314360004287842 Phases=2

New Load.load_p1ulv5392 conn=wye bus1=p1ulv5392.1.2 kV=0.2080002494301389 Vminpu=0.8 Vmaxpu=1.2 model=1 kW=12.1301 kvar=0.9401717516684716 Phases=2

New Load.load_p1ulv5393 conn=wye bus1=p1ulv5393.1.2 kV=0.2080002494301389 Vminpu=0.8 Vmaxpu=1.2 model=1 kW=13.0901 kvar=1.1409467586725162 Phases=2

New Load.load_p1ulv5394 conn=wye bus1=p1ulv5394.1.2 kV=0.2080002494301389 Vminpu=0.8 Vmaxpu=1.2 model=1 kW=5.63006 kvar=1.1402832216685126 Phases=2

New Load.load_p1ulv5395 conn=wye bus1=p1ulv5395.1.2 kV=0.2080002494301389 Vminpu=0.8 Vmaxpu=1.2 model=1 kW=14.8501 kvar=1.4886451474920486 Phases=2

New Load.load_p1ulv5396 conn=wye bus1=p1ulv5396.1.2 kV=0.2080002494301389 Vminpu=0.8 Vmaxpu=1.2 model=1 kW=12.53 kvar=1.0187603008056223 Phases=2

New Load.load_p1ulv5397 conn=wye bus1=p1ulv5397.1.2 kV=0.2080002494301389 Vminpu=0.8 Vmaxpu=1.2 model=1 kW=13.4001 kvar=1.2011419279441737 Phases=2

New Load.load_p1ulv5398 conn=wye bus1=p1ulv5398.1.2 kV=0.2080002494301389 Vminpu=0.8 Vmaxpu=1.2 model=1 kW=13.6501 kvar=1.2488229464187643 Phases=2

New Load.load_p1ulv5399 conn=wye bus1=p1ulv5399.1.2 kV=0.2080002494301389 Vminpu=0.8 Vmaxpu=1.2 model=1 kW=12.7901 kvar=1.079713885131026 Phases=2

New Load.load_p1ulv5400 conn=wye bus1=p1ulv5400.1.2 kV=0.2080002494301389 Vminpu=0.8 Vmaxpu=1.2 model=1 kW=14.7001 kvar=1.4582649236133909 Phases=2

New Load.load_p1ulv5401 conn=wye bus1=p1ulv5401.1.2 kV=0.2080002494301389 Vminpu=0.8 Vmaxpu=1.2 model=1 kW=13.2201 kvar=1.1585113559957074 Phases=2

New Load.load_p1ulv5402 conn=wye bus1=p1ulv5402.1.2 kV=0.2080002494301389 Vminpu=0.8 Vmaxpu=1.2 model=1 kW=2.96003 kvar=0.5995091605836256 Phases=2

New Load.load_p1ulv5403 conn=wye bus1=p1ulv5403.1.2 kV=0.2080002494301389 Vminpu=0.8 Vmaxpu=1.2 model=1 kW=12.7401 kvar=1.0612926142357433 Phases=2

New Load.load_p1ulv5404 conn=wye bus1=p1ulv5404.1.2 kV=0.2080002494301389 Vminpu=0.8 Vmaxpu=1.2 model=1 kW=12.33 kvar=0.9807834837952725 Phases=2

New Load.load_p1ulv5405 conn=wye bus1=p1ulv5405.1.2 kV=0.2080002494301389 Vminpu=0.8 Vmaxpu=1.2 model=1 kW=17.2601 kvar=1.9818728336539455 Phases=2

New Load.load_p1ulv5406 conn=wye bus1=p1ulv5406.1.2 kV=0.2080002494301389 Vminpu=0.8 Vmaxpu=1.2 model=1 kW=11.79 kvar=0.8711297764663039 Phases=2

New Load.load_p1ulv5407 conn=wye bus1=p1ulv5407.1.2 kV=0.2080002494301389 Vminpu=0.8 Vmaxpu=1.2 model=1 kW=13.4901 kvar=1.2194642456011087 Phases=2

New Load.load_p1ulv5408 conn=wye bus1=p1ulv5408.1.2 kV=0.2080002494301389 Vminpu=0.8 Vmaxpu=1.2 model=1 kW=12.75 kvar=1.0688120423865706 Phases=2

New Load.load_p1ulv5409 conn=wye bus1=p1ulv5409.1.2 kV=0.2080002494301389 Vminpu=0.8 Vmaxpu=1.2 model=1 kW=14.2001 kvar=1.3605072403540732 Phases=2

New Load.load_p1ulv5410 conn=wye bus1=p1ulv5410.1.2 kV=0.2080002494301389 Vminpu=0.8 Vmaxpu=1.2 model=1 kW=12.5401 kvar=1.0207856490641993 Phases=2

New Load.load_p1ulv5411 conn=wye bus1=p1ulv5411.1.2 kV=0.2080002494301389 Vminpu=0.8 Vmaxpu=1.2 model=1 kW=14.0001 kvar=1.319895508227272 Phases=2

New Load.load_p1ulv5412 conn=wye bus1=p1ulv5412.1.2 kV=0.2080002494301389 Vminpu=0.8 Vmaxpu=1.2 model=1 kW=11.67 kvar=0.8489421946902781 Phases=2

New Load.load_p1ulv5413 conn=wye bus1=p1ulv5413.1.2 kV=0.2080002494301389 Vminpu=0.8 Vmaxpu=1.2 model=1 kW=15.1101 kvar=1.5413062275633143 Phases=2

New Load.load_p1ulv5414 conn=wye bus1=p1ulv5414.1.2 kV=0.2080002494301389 Vminpu=0.8 Vmaxpu=1.2 model=1 kW=12.5201 kvar=1.0193646293157332 Phases=2

New Load.load_p1ulv5415 conn=wye bus1=p1ulv5415.1.2 kV=0.2080002494301389 Vminpu=0.8 Vmaxpu=1.2 model=1 kW=13.2201 kvar=1.1585113559957074 Phases=2

New Load.load_p1ulv5416 conn=wye bus1=p1ulv5416.1.2 kV=0.2080002494301389 Vminpu=0.8 Vmaxpu=1.2 model=1 kW=14.2501 kvar=1.3706601733857733 Phases=2

New Load.load_p1ulv5417 conn=wye bus1=p1ulv5417.1.2 kV=0.2080002494301389 Vminpu=0.8 Vmaxpu=1.2 model=1 kW=13.9701 kvar=1.3104124753889972 Phases=2

New Load.load_p1ulv5418 conn=wye bus1=p1ulv5418.1.2 kV=0.2080002494301389 Vminpu=0.8 Vmaxpu=1.2 model=1 kW=13.6201 kvar=1.239525286338795 Phases=2

New Load.load_p1ulv5420 conn=wye bus1=p1ulv5420.1.2 kV=0.2080002494301389 Vminpu=0.8 Vmaxpu=1.2 model=1 kW=12.21 kvar=0.9588781364449609 Phases=2

New Load.load_p1ulv5421 conn=wye bus1=p1ulv5421.1.2 kV=0.2080002494301389 Vminpu=0.8 Vmaxpu=1.2 model=1 kW=13.3201 kvar=1.1787648385814788 Phases=2

New Load.load_p1ulv5422 conn=wye bus1=p1ulv5422.1.2 kV=0.2080002494301389 Vminpu=0.8 Vmaxpu=1.2 model=1 kW=13.2201 kvar=1.1585113559957074 Phases=2

New Load.load_p1ulv5423 conn=wye bus1=p1ulv5423.1.2 kV=0.2080002494301389 Vminpu=0.8 Vmaxpu=1.2 model=1 kW=13.0301 kvar=1.1200297390827405 Phases=2

New Load.load_p1ulv5424 conn=wye bus1=p1ulv5424.1.2 kV=0.2080002494301389 Vminpu=0.8 Vmaxpu=1.2 model=1 kW=16.4401 kvar=1.8200352095731958 Phases=2

New Load.load_p1ulv5426 conn=wye bus1=p1ulv5426.1.2 kV=0.2080002494301389 Vminpu=0.8 Vmaxpu=1.2 model=1 kW=4.66005 kvar=0.951129136852173 Phases=2

New Load.load_p1ulv5428 conn=wye bus1=p1ulv5428.1.2 kV=0.2080002494301389 Vminpu=0.8 Vmaxpu=1.2 model=1 kW=13.5601 kvar=1.2305476669617041 Phases=2

New Load.load_p1ulv7015 conn=wye bus1=p1ulv7015.1.2 kV=0.2080002494301389 Vminpu=0.8 Vmaxpu=1.2 model=1 kW=14.7801 kvar=1.4782812635217957 Phases=2

New Load.load_p1ulv7023 conn=wye bus1=p1ulv7023.1.2 kV=0.2080002494301389 Vminpu=0.8 Vmaxpu=1.2 model=1 kW=7.46007 kvar=1.510923978336398 Phases=2

New Load.load_p1ulv7036 conn=wye bus1=p1ulv7036.1.2 kV=0.2080002494301389 Vminpu=0.8 Vmaxpu=1.2 model=1 kW=7.97008 kvar=1.6183937699458648 Phases=2

New Load.load_p1ulv13334 conn=wye bus1=p1ulv13334.1.2 kV=0.2080002494301389 Vminpu=0.8 Vmaxpu=1.2 model=1 kW=3.72004 kvar=0.7495268825292292 Phases=2

New Load.load_p1ulv13665 conn=wye bus1=p1ulv13665.1.2 kV=0.2080002494301389 Vminpu=0.8 Vmaxpu=1.2 model=1 kW=4.73005 kvar=0.960477617731872 Phases=2

New Load.load_p1ulv13761 conn=wye bus1=p1ulv13761.1.2 kV=0.2080002494301389 Vminpu=0.8 Vmaxpu=1.2 model=1 kW=3.88004 kvar=0.7899036155734878 Phases=2

New Load.load_p1ulv13786 conn=wye bus1=p1ulv13786.1.2 kV=0.2080002494301389 Vminpu=0.8 Vmaxpu=1.2 model=1 kW=3.25003 kvar=0.659946738820333 Phases=2

New Load.load_p1ulv14601 conn=wye bus1=p1ulv14601.1.2 kV=0.2080002494301389 Vminpu=0.8 Vmaxpu=1.2 model=1 kW=4.31004 kvar=0.8706702910749454 Phases=2

New Load.load_p1ulv14720 conn=wye bus1=p1ulv14720.1.2 kV=0.2080002494301389 Vminpu=0.8 Vmaxpu=1.2 model=1 kW=4.23004 kvar=0.8589462568282636 Phases=2

New Load.load_p1ulv14960 conn=wye bus1=p1ulv14960.1.2 kV=0.2080002494301389 Vminpu=0.8 Vmaxpu=1.2 model=1 kW=5.07005 kvar=1.0295175623474335 Phases=2

New Load.load_p1ulv15134 conn=wye bus1=p1ulv15134.1.2 kV=0.2080002494301389 Vminpu=0.8 Vmaxpu=1.2 model=1 kW=3.46003 kvar=0.7007765735124853 Phases=2

New Load.load_p1ulv15506 conn=wye bus1=p1ulv15506.1.2 kV=0.2080002494301389 Vminpu=0.8 Vmaxpu=1.2 model=1 kW=4.87005 kvar=0.9889058302206326 Phases=2

New Load.load_p1ulv15974 conn=wye bus1=p1ulv15974.1.2 kV=0.2080002494301389 Vminpu=0.8 Vmaxpu=1.2 model=1 kW=1.38001 kvar=0.28022298226153225 Phases=2

New Load.load_p1ulv15978 conn=wye bus1=p1ulv15978.1.2 kV=0.2080002494301389 Vminpu=0.8 Vmaxpu=1.2 model=1 kW=1.38001 kvar=0.28022298226153225 Phases=2

New Load.load_p1ulv15982 conn=wye bus1=p1ulv15982.1.2 kV=0.2080002494301389 Vminpu=0.8 Vmaxpu=1.2 model=1 kW=2.81003 kvar=0.570600928141371 Phases=2

New Load.load_p1ulv15983 conn=wye bus1=p1ulv15983.1.2 kV=0.2080002494301389 Vminpu=0.8 Vmaxpu=1.2 model=1 kW=4.57005 kvar=0.9303767534230621 Phases=2

New Load.load_p1ulv15984 conn=wye bus1=p1ulv15984.1.2 kV=0.2080002494301389 Vminpu=0.8 Vmaxpu=1.2 model=1 kW=5.47005 kvar=1.110741026601035 Phases=2

New Load.load_p1ulv15985 conn=wye bus1=p1ulv15985.1.2 kV=0.2080002494301389 Vminpu=0.8 Vmaxpu=1.2 model=1 kW=5.00005 kvar=1.0205240803677447 Phases=2

New Load.load_p1ulv15986 conn=wye bus1=p1ulv15986.1.2 kV=0.2080002494301389 Vminpu=0.8 Vmaxpu=1.2 model=1 kW=5.39005 kvar=1.1001241626356058 Phases=2

New Load.load_p1ulv15987 conn=wye bus1=p1ulv15987.1.2 kV=0.2080002494301389 Vminpu=0.8 Vmaxpu=1.2 model=1 kW=5.39005 kvar=1.088842888327837 Phases=2

New Load.load_p1ulv15988 conn=wye bus1=p1ulv15988.1.2 kV=0.2080002494301389 Vminpu=0.8 Vmaxpu=1.2 model=1 kW=7.97008 kvar=1.6183937699458648 Phases=2

New Load.load_p1ulv15989 conn=wye bus1=p1ulv15989.1.2 kV=0.2080002494301389 Vminpu=0.8 Vmaxpu=1.2 model=1 kW=5.15005 kvar=1.0511394966246144 Phases=2

New Load.load_p1ulv15990 conn=wye bus1=p1ulv15990.1.2 kV=0.2080002494301389 Vminpu=0.8 Vmaxpu=1.2 model=1 kW=8.29008 kvar=1.6790299091465637 Phases=2

New Load.load_p1ulv15991 conn=wye bus1=p1ulv15991.1.2 kV=0.2080002494301389 Vminpu=0.8 Vmaxpu=1.2 model=1 kW=6.03006 kvar=1.2212971520116003 Phases=2

New Load.load_p1ulv15992 conn=wye bus1=p1ulv15992.1.2 kV=0.2080002494301389 Vminpu=0.8 Vmaxpu=1.2 model=1 kW=5.29005 kvar=1.0686419089616372 Phases=2

New Load.load_p1ulv15993 conn=wye bus1=p1ulv15993.1.2 kV=0.2080002494301389 Vminpu=0.8 Vmaxpu=1.2 model=1 kW=5.70006 kvar=1.1604256664843182 Phases=2

New Load.load_p1ulv15994 conn=wye bus1=p1ulv15994.1.2 kV=0.2080002494301389 Vminpu=0.8 Vmaxpu=1.2 model=1 kW=5.80006 kvar=1.1807837972142463 Phases=2

New Load.load_p1ulv15995 conn=wye bus1=p1ulv15995.1.2 kV=0.2080002494301389 Vminpu=0.8 Vmaxpu=1.2 model=1 kW=4.32004 kvar=0.8794793907851697 Phases=2

New Load.load_p1ulv15996 conn=wye bus1=p1ulv15996.1.2 kV=0.2080002494301389 Vminpu=0.8 Vmaxpu=1.2 model=1 kW=3.41003 kvar=0.6906498322195993 Phases=2

New Load.load_p1ulv15997 conn=wye bus1=p1ulv15997.1.2 kV=0.2080002494301389 Vminpu=0.8 Vmaxpu=1.2 model=1 kW=3.67004 kvar=0.749065348529082 Phases=2

New Load.load_p1ulv15998 conn=wye bus1=p1ulv15998.1.2 kV=0.2080002494301389 Vminpu=0.8 Vmaxpu=1.2 model=1 kW=4.29004 kvar=0.8711297764663039 Phases=2

New Load.load_p1ulv15999 conn=wye bus1=p1ulv15999.1.2 kV=0.2080002494301389 Vminpu=0.8 Vmaxpu=1.2 model=1 kW=4.69005 kvar=0.9498984600139976 Phases=2

New Load.load_p1ulv16000 conn=wye bus1=p1ulv16000.1.2 kV=0.2080002494301389 Vminpu=0.8 Vmaxpu=1.2 model=1 kW=4.39004 kvar=0.8891359869084231 Phases=2

New Load.load_p1ulv16001 conn=wye bus1=p1ulv16001.1.2 kV=0.2080002494301389 Vminpu=0.8 Vmaxpu=1.2 model=1 kW=4.81005 kvar=0.9792362671748885 Phases=2

New Load.load_p1ulv16003 conn=wye bus1=p1ulv16003.1.2 kV=0.2080002494301389 Vminpu=0.8 Vmaxpu=1.2 model=1 kW=4.17004 kvar=0.8489421946902781 Phases=2

New Load.load_p1ulv16004 conn=wye bus1=p1ulv16004.1.2 kV=0.2080002494301389 Vminpu=0.8 Vmaxpu=1.2 model=1 kW=3.06003 kvar=0.6197626431693976 Phases=2

New Load.load_p1ulv16005 conn=wye bus1=p1ulv16005.1.2 kV=0.2080002494301389 Vminpu=0.8 Vmaxpu=1.2 model=1 kW=3.7500400000000003 kvar=0.7595136983594827 Phases=2

New Load.load_p1ulv16006 conn=wye bus1=p1ulv16006.1.2 kV=0.2080002494301389 Vminpu=0.8 Vmaxpu=1.2 model=1 kW=4.40004 kvar=0.8911613351670004 Phases=2

New Load.load_p1ulv16007 conn=wye bus1=p1ulv16007.1.2 kV=0.2080002494301389 Vminpu=0.8 Vmaxpu=1.2 model=1 kW=3.87004 kvar=0.7898859035382418 Phases=2

New Load.load_p1ulv16009 conn=wye bus1=p1ulv16009.1.2 kV=0.2080002494301389 Vminpu=0.8 Vmaxpu=1.2 model=1 kW=4.880050000000001 kvar=0.9909364168269728 Phases=2

New Load.load_p1ulv16010 conn=wye bus1=p1ulv16010.1.2 kV=0.2080002494301389 Vminpu=0.8 Vmaxpu=1.2 model=1 kW=4.05004 kvar=0.8202741461167985 Phases=2

New Load.load_p1ulv16011 conn=wye bus1=p1ulv16011.1.2 kV=0.2080002494301389 Vminpu=0.8 Vmaxpu=1.2 model=1 kW=6.59007 kvar=1.341615065793748 Phases=2

New Load.load_p1ulv16013 conn=wye bus1=p1ulv16013.1.2 kV=0.2080002494301389 Vminpu=0.8 Vmaxpu=1.2 model=1 kW=5.14005 kvar=1.0410391316499712 Phases=2

New Load.load_p1ulv16014 conn=wye bus1=p1ulv16014.1.2 kV=0.2080002494301389 Vminpu=0.8 Vmaxpu=1.2 model=1 kW=3.99004 kvar=0.8102121782761024 Phases=2

New Load.load_p1ulv16015 conn=wye bus1=p1ulv16015.1.2 kV=0.2080002494301389 Vminpu=0.8 Vmaxpu=1.2 model=1 kW=4.11004 kvar=0.8410090147543001 Phases=2

New Load.load_p1ulv16019 conn=wye bus1=p1ulv16019.1.2 kV=0.2080002494301389 Vminpu=0.8 Vmaxpu=1.2 model=1 kW=4.42004 kvar=0.8998375215150975 Phases=2

New Load.load_p1ulv16022 conn=wye bus1=p1ulv16022.1.2 kV=0.2080002494301389 Vminpu=0.8 Vmaxpu=1.2 model=1 kW=6.32006 kvar=1.2800322515103388 Phases=2

New Load.load_p1ulv16027 conn=wye bus1=p1ulv16027.1.2 kV=0.2080002494301389 Vminpu=0.8 Vmaxpu=1.2 model=1 kW=5.40005 kvar=1.0993492384814623 Phases=2

New Load.load_p1ulv16029 conn=wye bus1=p1ulv16029.1.2 kV=0.2080002494301389 Vminpu=0.8 Vmaxpu=1.2 model=1 kW=3.61004 kvar=0.7292634355115489 Phases=2

New Load.load_p1ulv16036 conn=wye bus1=p1ulv16036.1.2 kV=0.2080002494301389 Vminpu=0.8 Vmaxpu=1.2 model=1 kW=3.09003 kvar=0.6306836979747686 Phases=2

New Load.load_p1ulv16037 conn=wye bus1=p1ulv16037.1.2 kV=0.2080002494301389 Vminpu=0.8 Vmaxpu=1.2 model=1 kW=3.79004 kvar=0.7696004461493017 Phases=2

New Load.load_p1ulv16041 conn=wye bus1=p1ulv16041.1.2 kV=0.2080002494301389 Vminpu=0.8 Vmaxpu=1.2 model=1 kW=3.10003 kvar=0.6294879397252322 Phases=2

New Load.load_p1ulv16042 conn=wye bus1=p1ulv16042.1.2 kV=0.2080002494301389 Vminpu=0.8 Vmaxpu=1.2 model=1 kW=5.20005 kvar=1.061344635376904 Phases=2

New Load.load_p1ulv16043 conn=wye bus1=p1ulv16043.1.2 kV=0.2080002494301389 Vminpu=0.8 Vmaxpu=1.2 model=1 kW=3.51004 kvar=0.7109053401536299 Phases=2

New Load.load_p1ulv16442 conn=wye bus1=p1ulv16442.1.2 kV=0.2080002494301389 Vminpu=0.8 Vmaxpu=1.2 model=1 kW=4.06004 kvar=0.8201678426594468 Phases=2

New Load.load_p1ulv17241 conn=wye bus1=p1ulv17241.1.2 kV=0.2080002494301389 Vminpu=0.8 Vmaxpu=1.2 model=1 kW=5.39005 kvar=1.088842888327837 Phases=2

New Load.load_p1ulv17471 conn=wye bus1=p1ulv17471.1.2 kV=0.2080002494301389 Vminpu=0.8 Vmaxpu=1.2 model=1 kW=4.25004 kvar=0.8607811112883423 Phases=2

New Load.load_p1ulv17565 conn=wye bus1=p1ulv17565.1.2 kV=0.2080002494301389 Vminpu=0.8 Vmaxpu=1.2 model=1 kW=1.65002 kvar=0.32983487350023794 Phases=2

New Load.load_p1ulv17566 conn=wye bus1=p1ulv17566.1.2 kV=0.2080002494301389 Vminpu=0.8 Vmaxpu=1.2 model=1 kW=2.77003 kvar=0.5595731887375364 Phases=2

New Load.load_p1ulv17570 conn=wye bus1=p1ulv17570.1.2 kV=0.2080002494301389 Vminpu=0.8 Vmaxpu=1.2 model=1 kW=3.29003 kvar=0.6697886084538411 Phases=2

New Load.load_p1ulv17666 conn=wye bus1=p1ulv17666.1.2 kV=0.2080002494301389 Vminpu=0.8 Vmaxpu=1.2 model=1 kW=4.200040000000001 kvar=0.8506543699954566 Phases=2
