New Line.l(r:p1ulv401-udm951) Units=km Length=0.0102748 bus1=udm951.1.2 bus2=p1ulv401.1.2 switch=n enabled=y phases=2 Linecode=1P_UG_AL_1/0_Brenau_0_416_0_2_2

New Line.l(r:p1ulv11122-udm952) Units=km Length=0.00521806 bus1=udm952.1.2 bus2=p1ulv11122.1.2 switch=n enabled=y phases=2 Linecode=1P_UG_AL_1/0_Brenau_0_416_0_2_2

New Line.l(r:udm951-udm952) Units=km Length=0.0189125 bus1=udm951.1.2 bus2=udm952.1.2 switch=n enabled=y phases=2 Linecode=1P_UG_AL_1/0_Brenau_0_416_0_2_2

New Line.l(r:udm951-udt260lv) Units=km Length=0.00946135 bus1=udt260lv.1.2 bus2=udm951.1.2 switch=n enabled=y phases=2 Linecode=1P_UG_AL_1/0_Brenau_0_416_0_2_2

New Line.l(r:p1ulv42718-udm954) Units=km Length=0.00942404 bus1=udm954.1.2 bus2=p1ulv42718.1.2 switch=n enabled=y phases=2 Linecode=1P_UG_AL_1/0_Brenau_0_416_0_2_2

New Line.l(r:p1ulv32319-udm953) Units=km Length=0.0181259 bus1=udm953.1.2 bus2=p1ulv32319.1.2 switch=n enabled=y phases=2 Linecode=1P_UG_AL_4/0_Sweetbriar_0_416_0_2_2

New Line.l(r:udm953-udm954) Units=km Length=0.028373700000000005 bus1=udm954.1.2 bus2=udm953.1.2 switch=n enabled=y phases=2 Linecode=1P_UG_AL_4/0_Sweetbriar_0_416_0_2_2

New Line.l(r:udm954-udt260lv) Units=km Length=0.009451350000000002 bus1=udt260lv.1.2 bus2=udm954.1.2 switch=n enabled=y phases=2 Linecode=1P_UG_AL_4/0_Sweetbriar_0_416_0_2_2

New Line.l(r:p1ulv29807-udt261lv) Units=km Length=0.012219 bus1=udt261lv.1.2 bus2=p1ulv29807.1.2 switch=n enabled=y phases=2 Linecode=1P_UG_AL_2/0_Converse_0_416_0_2_2

New Line.l(r:p1ulv402-udm955) Units=km Length=0.0160317 bus1=udm955.1.2 bus2=p1ulv402.1.2 switch=n enabled=y phases=2 Linecode=1P_UG_AL_1/0_Brenau_0_416_0_2_2

New Line.l(r:p1ulv403-udm956) Units=km Length=0.015202300000000002 bus1=udm956.1.2 bus2=p1ulv403.1.2 switch=n enabled=y phases=2 Linecode=1P_UG_AL_1/0_Brenau_0_416_0_2_2

New Line.l(r:udm955-udm956) Units=km Length=0.009900690000000002 bus1=udm955.1.2 bus2=udm956.1.2 switch=n enabled=y phases=2 Linecode=1P_UG_AL_1/0_Brenau_0_416_0_2_2

New Line.l(r:udm955-udt261lv) Units=km Length=0.0198009 bus1=udt261lv.1.2 bus2=udm955.1.2 switch=n enabled=y phases=2 Linecode=1P_UG_AL_1/0_Brenau_0_416_0_2_2

New Line.l(r:p1ulv47873-udm959) Units=km Length=0.00957839 bus1=udm959.1.2 bus2=p1ulv47873.1.2 switch=n enabled=y phases=2 Linecode=1P_UG_AL_1/0_Brenau_0_416_0_2_2

New Line.l(r:p1ulv26014-udm957) Units=km Length=0.013986100000000001 bus1=udm957.1.2 bus2=p1ulv26014.1.2 switch=n enabled=y phases=2 Linecode=1P_OH_AL_2/0_Rucina_0_416_0_2_2

New Line.l(r:udm957-udm959) Units=km Length=0.0566896 bus1=udm959.1.2 bus2=udm957.1.2 switch=n enabled=y phases=2 Linecode=1P_OH_AL_4/0_Zuzara_0_416_0_2_2

New Line.l(r:udm959-udt261lv) Units=km Length=0.0297016 bus1=udt261lv.1.2 bus2=udm959.1.2 switch=n enabled=y phases=2 Linecode=1P_UG_AL_1/0_Brenau_0_416_0_2_2

New Line.l(r:p1ulv27273-udt262lv) Units=km Length=0.010092 bus1=udt262lv.1.2 bus2=p1ulv27273.1.2 switch=n enabled=y phases=2 Linecode=1P_UG_AL_1/0_Brenau_0_416_0_2_2

New Line.l(r:p1ulv404-udm960) Units=km Length=0.011638 bus1=udm960.1.2 bus2=p1ulv404.1.2 switch=n enabled=y phases=2 Linecode=1P_UG_AL_1/0_Brenau_0_416_0_2_2

New Line.l(r:p1ulv47344-udm960) Units=km Length=0.010707 bus1=udm960.1.2 bus2=p1ulv47344.1.2 switch=n enabled=y phases=2 Linecode=1P_UG_AL_1/0_Brenau_0_416_0_2_2

New Line.l(r:p1ulv27741-udm963) Units=km Length=0.00919372 bus1=udm963.1.2 bus2=p1ulv27741.1.2 switch=n enabled=y phases=2 Linecode=1P_UG_AL_1/0_Brenau_0_416_0_2_2

New Line.l(r:udm960-udm963) Units=km Length=0.02866 bus1=udm960.1.2 bus2=udm963.1.2 switch=n enabled=y phases=2 Linecode=1P_UG_AL_1/0_Brenau_0_416_0_2_2

New Line.l(r:udm960-udt262lv) Units=km Length=0.00956001 bus1=udt262lv.1.2 bus2=udm960.1.2 switch=n enabled=y phases=2 Linecode=1P_UG_AL_2/0_Converse_0_416_0_2_2

New Line.l(r:p1ulv28681-udm964) Units=km Length=0.0145779 bus1=udm964.1.2 bus2=p1ulv28681.1.2 switch=n enabled=y phases=2 Linecode=1P_UG_AL_1/0_Brenau_0_416_0_2_2

New Line.l(r:p1ulv29738-udm964) Units=km Length=0.0113691 bus1=udm964.1.2 bus2=p1ulv29738.1.2 switch=n enabled=y phases=2 Linecode=1P_UG_AL_1/0_Brenau_0_416_0_2_2

New Line.l(r:p1ulv26726-udm961) Units=km Length=0.0115994 bus1=udm961.1.2 bus2=p1ulv26726.1.2 switch=n enabled=y phases=2 Linecode=1P_UG_AL_1/0_Brenau_0_416_0_2_2

New Line.l(r:udm961-udm964) Units=km Length=0.0647324 bus1=udm964.1.2 bus2=udm961.1.2 switch=n enabled=y phases=2 Linecode=1P_UG_AL_1/0_Brenau_0_416_0_2_2

New Line.l(r:udm964-udt262lv) Units=km Length=0.00955001 bus1=udt262lv.1.2 bus2=udm964.1.2 switch=n enabled=y phases=2 Linecode=1P_UG_AL_2/0_Converse_0_416_0_2_2

New Line.l(r:p1ulv33632-udm971) Units=km Length=0.0136481 bus1=udm971.1.2 bus2=p1ulv33632.1.2 switch=n enabled=y phases=2 Linecode=1P_UG_AL_1/0_Brenau_0_416_0_2_2

New Line.l(r:p1ulv405-udm967) Units=km Length=0.016341 bus1=udm967.1.2 bus2=p1ulv405.1.2 switch=n enabled=y phases=2 Linecode=1P_UG_AL_1/0_Brenau_0_416_0_2_2

New Line.l(r:p1ulv31469-udm967) Units=km Length=0.0151392 bus1=udm967.1.2 bus2=p1ulv31469.1.2 switch=n enabled=y phases=2 Linecode=1P_UG_AL_1/0_Brenau_0_416_0_2_2

New Line.l(r:udm967-udm971) Units=km Length=0.0198231 bus1=udm971.1.2 bus2=udm967.1.2 switch=n enabled=y phases=2 Linecode=1P_UG_AL_1/0_Brenau_0_416_0_2_2

New Line.l(r:udm971-udt263lv) Units=km Length=0.0492101 bus1=udt263lv.1.2 bus2=udm971.1.2 switch=n enabled=y phases=2 Linecode=1P_UG_AL_2/0_Converse_0_416_0_2_2

New Line.l(r:p1ulv36995-udm972) Units=km Length=0.016243000000000004 bus1=udm972.1.2 bus2=p1ulv36995.1.2 switch=n enabled=y phases=2 Linecode=1P_UG_AL_1/0_Brenau_0_416_0_2_2

New Line.l(r:p1ulv30186-udm969) Units=km Length=0.0161727 bus1=udm969.1.2 bus2=p1ulv30186.1.2 switch=n enabled=y phases=2 Linecode=1P_UG_AL_1/0_Brenau_0_416_0_2_2

New Line.l(r:p1ulv27337-udm968) Units=km Length=0.019481500000000002 bus1=udm968.1.2 bus2=p1ulv27337.1.2 switch=n enabled=y phases=2 Linecode=1P_UG_AL_1/0_Brenau_0_416_0_2_2

New Line.l(r:p1ulv38608-udm968) Units=km Length=0.0142818 bus1=udm968.1.2 bus2=p1ulv38608.1.2 switch=n enabled=y phases=2 Linecode=1P_UG_AL_1/0_Brenau_0_416_0_2_2

New Line.l(r:p1ulv46011-udm974) Units=km Length=0.014471000000000001 bus1=udm974.1.2 bus2=p1ulv46011.1.2 switch=n enabled=y phases=2 Linecode=1P_UG_AL_1/0_Brenau_0_416_0_2_2

New Line.l(r:p1ulv49260-udm974) Units=km Length=0.0140382 bus1=udm974.1.2 bus2=p1ulv49260.1.2 switch=n enabled=y phases=2 Linecode=1P_UG_AL_1/0_Brenau_0_416_0_2_2

New Line.l(r:udm968-udm974) Units=km Length=0.0194754 bus1=udm968.1.2 bus2=udm974.1.2 switch=n enabled=y phases=2 Linecode=1P_UG_AL_2/0_Converse_0_416_0_2_2

New Line.l(r:udm968-udm969) Units=km Length=0.0194754 bus1=udm969.1.2 bus2=udm968.1.2 switch=n enabled=y phases=2 Linecode=1P_UG_AL_4/0_Sweetbriar_0_416_0_2_2

New Line.l(r:udm969-udm972) Units=km Length=0.00973272 bus1=udm972.1.2 bus2=udm969.1.2 switch=n enabled=y phases=2 Linecode=1P_UG_AL_4/0_Sweetbriar_0_416_0_2_2

New Line.l(r:udm972-udt263lv) Units=km Length=0.00973272 bus1=udt263lv.1.2 bus2=udm972.1.2 switch=n enabled=y phases=2 Linecode=1P_UG_AL_4/0_Sweetbriar_0_416_0_2_2

New Line.l(r:p1ulv31262-udt264lv) Units=km Length=0.00877725 bus1=udt264lv.1.2 bus2=p1ulv31262.1.2 switch=n enabled=y phases=2 Linecode=1P_UG_AL_1/0_Brenau_0_416_0_2_2

New Line.l(r:p1ulv406-udm976) Units=km Length=0.016229700000000003 bus1=udm976.1.2 bus2=p1ulv406.1.2 switch=n enabled=y phases=2 Linecode=1P_UG_AL_1/0_Brenau_0_416_0_2_2

New Line.l(r:udm976-udt264lv) Units=km Length=0.009900690000000002 bus1=udt264lv.1.2 bus2=udm976.1.2 switch=n enabled=y phases=2 Linecode=1P_UG_AL_1/0_Brenau_0_416_0_2_2

New Line.l(r:p1ulv408-udm977) Units=km Length=0.013148300000000002 bus1=udm977.1.2 bus2=p1ulv408.1.2 switch=n enabled=y phases=2 Linecode=1P_UG_AL_1/0_Brenau_0_416_0_2_2

New Line.l(r:udm977-udt264lv) Units=km Length=0.00990023 bus1=udt264lv.1.2 bus2=udm977.1.2 switch=n enabled=y phases=2 Linecode=1P_UG_AL_1/0_Brenau_0_416_0_2_2

New Line.l(r:p1ulv407-udt265lv) Units=km Length=0.0114873 bus1=udt265lv.1.2 bus2=p1ulv407.1.2 switch=n enabled=y phases=2 Linecode=1P_UG_AL_1/0_Brenau_0_416_0_2_2

New Line.l(r:p1ulv50859-udt265lv) Units=km Length=0.0113316 bus1=udt265lv.1.2 bus2=p1ulv50859.1.2 switch=n enabled=y phases=2 Linecode=1P_UG_AL_1/0_Brenau_0_416_0_2_2

New Line.l(r:p1ulv409-udm980) Units=km Length=0.0221943 bus1=udm980.1.2 bus2=p1ulv409.1.2 switch=n enabled=y phases=2 Linecode=1P_OH_AL_2/0_Rucina_0_416_0_2_2

New Line.l(r:udm980-udt265lv) Units=km Length=0.058601 bus1=udt265lv.1.2 bus2=udm980.1.2 switch=n enabled=y phases=2 Linecode=1P_OH_AL_4/0_Zuzara_0_416_0_2_2

New Line.l(r:p1ulv410-udt266lv) Units=km Length=0.0550838 bus1=udt266lv.1.2 bus2=p1ulv410.1.2 switch=n enabled=y phases=2 Linecode=1P_UG_AL_1/0_Brenau_0_416_0_2_2

New Line.l(r:p1ulv411-udm983) Units=km Length=0.0159453 bus1=udm983.1.2 bus2=p1ulv411.1.2 switch=n enabled=y phases=2 Linecode=1P_UG_AL_1/0_Brenau_0_416_0_2_2

New Line.l(r:udm983-udt267lv) Units=km Length=0.0265232 bus1=udt267lv.1.2 bus2=udm983.1.2 switch=n enabled=y phases=2 Linecode=1P_UG_AL_1/0_Brenau_0_416_0_2_2

New Line.l(r:p1ulv42207-udm985) Units=km Length=0.013045000000000001 bus1=udm985.1.2 bus2=p1ulv42207.1.2 switch=n enabled=y phases=2 Linecode=1P_UG_AL_1/0_Brenau_0_416_0_2_2

New Line.l(r:p1ulv34482-udm984) Units=km Length=0.0109984 bus1=udm984.1.2 bus2=p1ulv34482.1.2 switch=n enabled=y phases=2 Linecode=1P_UG_AL_1/0_Brenau_0_416_0_2_2

New Line.l(r:udm984-udm985) Units=km Length=0.00883775 bus1=udm985.1.2 bus2=udm984.1.2 switch=n enabled=y phases=2 Linecode=1P_UG_AL_1/0_Brenau_0_416_0_2_2

New Line.l(r:udm985-udt267lv) Units=km Length=0.00883734 bus1=udt267lv.1.2 bus2=udm985.1.2 switch=n enabled=y phases=2 Linecode=1P_UG_AL_1/0_Brenau_0_416_0_2_2

New Line.l(r:p1ulv412-udt268lv) Units=km Length=0.0138733 bus1=udt268lv.1.2 bus2=p1ulv412.1.2 switch=n enabled=y phases=2 Linecode=1P_OH_AL_2/0_Rucina_0_416_0_2_2

New Line.l(r:p1ulv413-udt269lv) Units=km Length=0.002991 bus1=udt269lv.1.2 bus2=p1ulv413.1.2 switch=n enabled=y phases=2 Linecode=1P_UG_AL_1/0_Brenau_0_416_0_2_2

New Line.l(r:p1ulv415-udm988) Units=km Length=0.0166776 bus1=udm988.1.2 bus2=p1ulv415.1.2 switch=n enabled=y phases=2 Linecode=1P_UG_AL_1/0_Brenau_0_416_0_2_2

New Line.l(r:p1ulv3794-udm989) Units=km Length=0.00501092 bus1=udm989.1.2 bus2=p1ulv3794.1.2 switch=n enabled=y phases=2 Linecode=1P_UG_AL_2/0_Converse_0_416_0_2_2

New Line.l(r:udm988-udm989) Units=km Length=0.019571500000000002 bus1=udm988.1.2 bus2=udm989.1.2 switch=n enabled=y phases=2 Linecode=1P_UG_AL_2/0_Converse_0_416_0_2_2

New Line.l(r:udm988-udt269lv) Units=km Length=0.00977591 bus1=udt269lv.1.2 bus2=udm988.1.2 switch=n enabled=y phases=2 Linecode=1P_UG_AL_4/0_Sweetbriar_0_416_0_2_2

New Line.l(r:p1ulv11124-udm990) Units=km Length=0.00578333 bus1=udm990.1.2 bus2=p1ulv11124.1.2 switch=n enabled=y phases=2 Linecode=1P_UG_AL_1/0_Brenau_0_416_0_2_2

New Line.l(r:udm990-udt269lv) Units=km Length=0.021182 bus1=udt269lv.1.2 bus2=udm990.1.2 switch=n enabled=y phases=2 Linecode=1P_UG_AL_1/0_Brenau_0_416_0_2_2

New Line.l(r:p1ulv34960-udt270lv) Units=km Length=0.0143914 bus1=udt270lv.1.2 bus2=p1ulv34960.1.2 switch=n enabled=y phases=2 Linecode=1P_UG_AL_1/0_Brenau_0_416_0_2_2

New Line.l(r:p1ulv414-udm991) Units=km Length=0.010500400000000002 bus1=udm991.1.2 bus2=p1ulv414.1.2 switch=n enabled=y phases=2 Linecode=1P_UG_AL_4/0_Sweetbriar_0_416_0_2_2

New Line.l(r:udm991-udt270lv) Units=km Length=0.00987002 bus1=udt270lv.1.2 bus2=udm991.1.2 switch=n enabled=y phases=2 Linecode=1P_UG_AL_4/0_Sweetbriar_0_416_0_2_2

New Line.l(r:p1ulv36358-udm993) Units=km Length=0.0147326 bus1=udm993.1.2 bus2=p1ulv36358.1.2 switch=n enabled=y phases=2 Linecode=1P_UG_AL_1/0_Brenau_0_416_0_2_2

New Line.l(r:udm993-udt270lv) Units=km Length=0.0197301 bus1=udt270lv.1.2 bus2=udm993.1.2 switch=n enabled=y phases=2 Linecode=1P_UG_AL_1/0_Brenau_0_416_0_2_2

New Line.l(r:p1ulv45705-udt271lv) Units=km Length=0.0173217 bus1=udt271lv.1.2 bus2=p1ulv45705.1.2 switch=n enabled=y phases=2 Linecode=1P_OH_AL_2/0_Rucina_0_416_0_2_2

New Line.l(r:p1ulv416-udm994) Units=km Length=0.0155549 bus1=udm994.1.2 bus2=p1ulv416.1.2 switch=n enabled=y phases=2 Linecode=1P_OH_AL_2/0_Rucina_0_416_0_2_2

New Line.l(r:udm994-udt271lv) Units=km Length=0.0189644 bus1=udt271lv.1.2 bus2=udm994.1.2 switch=n enabled=y phases=2 Linecode=1P_OH_AL_2/0_Rucina_0_416_0_2_2

New Line.l(r:p1ulv38096-udm995) Units=km Length=0.0113708 bus1=udm995.1.2 bus2=p1ulv38096.1.2 switch=n enabled=y phases=2 Linecode=1P_OH_AL_2/0_Rucina_0_416_0_2_2

New Line.l(r:udm995-udt271lv) Units=km Length=0.0189742 bus1=udt271lv.1.2 bus2=udm995.1.2 switch=n enabled=y phases=2 Linecode=1P_OH_AL_2/0_Rucina_0_416_0_2_2

New Line.l(r:p1ulv417-udt272lv) Units=km Length=0.0147261 bus1=udt272lv.1.2 bus2=p1ulv417.1.2 switch=n enabled=y phases=2 Linecode=1P_OH_AL_2/0_Rucina_0_416_0_2_2

New Line.l(r:p1ulv425-udt280lv) Units=km Length=0.0191135 bus1=udt280lv.1.2 bus2=p1ulv425.1.2 switch=n enabled=y phases=2 Linecode=1P_OH_AL_2/0_Rucina_0_416_0_2_2

New Line.l(r:p1ulv47138-udt280lv) Units=km Length=0.0116231 bus1=udt280lv.1.2 bus2=p1ulv47138.1.2 switch=n enabled=y phases=2 Linecode=1P_OH_AL_2/0_Rucina_0_416_0_2_2

New Line.l(r:p1ulv30709-udm1012) Units=km Length=0.0144084 bus1=udm1012.1.2 bus2=p1ulv30709.1.2 switch=n enabled=y phases=2 Linecode=1P_OH_AL_2/0_Rucina_0_416_0_2_2

New Line.l(r:p1ulv34739-udm1012) Units=km Length=0.0195822 bus1=udm1012.1.2 bus2=p1ulv34739.1.2 switch=n enabled=y phases=2 Linecode=1P_OH_AL_2/0_Rucina_0_416_0_2_2

New Line.l(r:udm1012-udt280lv) Units=km Length=0.0169232 bus1=udt280lv.1.2 bus2=udm1012.1.2 switch=n enabled=y phases=2 Linecode=1P_OH_AL_2/0_Rucina_0_416_0_2_2

New Line.l(r:p1ulv43934-udm1015) Units=km Length=0.00887347 bus1=udm1015.1.2 bus2=p1ulv43934.1.2 switch=n enabled=y phases=2 Linecode=1P_UG_AL_1/0_Brenau_0_416_0_2_2

New Line.l(r:p1ulv37076-udm1014) Units=km Length=0.0159497 bus1=udm1014.1.2 bus2=p1ulv37076.1.2 switch=n enabled=y phases=2 Linecode=1P_UG_AL_1/0_Brenau_0_416_0_2_2

New Line.l(r:udm1014-udm1015) Units=km Length=0.00956001 bus1=udm1015.1.2 bus2=udm1014.1.2 switch=n enabled=y phases=2 Linecode=1P_UG_AL_1/0_Brenau_0_416_0_2_2

New Line.l(r:udm1015-udt280lv) Units=km Length=0.04338630000000001 bus1=udt280lv.1.2 bus2=udm1015.1.2 switch=n enabled=y phases=2 Linecode=1P_OH_AL_4/0_Zuzara_0_416_0_2_2

New Line.l(r:p1ulv3775-udt1783lv) Units=km Length=0.0158422 bus1=udt1783lv.1.2 bus2=p1ulv3775.1.2 switch=n enabled=y phases=2 Linecode=1P_UG_AL_1/0_Brenau_0_416_0_2_2

New Line.l(r:p1ulv3773-udm7027) Units=km Length=0.0156967 bus1=udm7027.1.2 bus2=p1ulv3773.1.2 switch=n enabled=y phases=2 Linecode=1P_UG_AL_1/0_Brenau_0_416_0_2_2

New Line.l(r:p1ulv3789-udm7031) Units=km Length=0.0166302 bus1=udm7031.1.2 bus2=p1ulv3789.1.2 switch=n enabled=y phases=2 Linecode=1P_UG_AL_1/0_Brenau_0_416_0_2_2

New Line.l(r:udm7027-udm7031) Units=km Length=0.00973132 bus1=udm7027.1.2 bus2=udm7031.1.2 switch=n enabled=y phases=2 Linecode=1P_UG_AL_1/0_Brenau_0_416_0_2_2

New Line.l(r:udm7027-udt1783lv) Units=km Length=0.00972116 bus1=udt1783lv.1.2 bus2=udm7027.1.2 switch=n enabled=y phases=2 Linecode=1P_UG_AL_1/0_Brenau_0_416_0_2_2

New Line.l(r:p1ulv3777-udm7029) Units=km Length=0.0160331 bus1=udm7029.1.2 bus2=p1ulv3777.1.2 switch=n enabled=y phases=2 Linecode=1P_UG_AL_1/0_Brenau_0_416_0_2_2

New Line.l(r:p1ulv3779-udm7030) Units=km Length=0.0163002 bus1=udm7030.1.2 bus2=p1ulv3779.1.2 switch=n enabled=y phases=2 Linecode=1P_UG_AL_1/0_Brenau_0_416_0_2_2

New Line.l(r:udm7029-udm7030) Units=km Length=0.00972132 bus1=udm7029.1.2 bus2=udm7030.1.2 switch=n enabled=y phases=2 Linecode=1P_UG_AL_1/0_Brenau_0_416_0_2_2

New Line.l(r:udm7029-udt1783lv) Units=km Length=0.00973132 bus1=udt1783lv.1.2 bus2=udm7029.1.2 switch=n enabled=y phases=2 Linecode=1P_UG_AL_2/0_Converse_0_416_0_2_2

New Line.l(r:p1ulv3784-udt1784lv) Units=km Length=0.0164511 bus1=udt1784lv.1.2 bus2=p1ulv3784.1.2 switch=n enabled=y phases=2 Linecode=1P_OH_AL_2/0_Rucina_0_416_0_2_2

New Line.l(r:p1ulv3781-udm7032) Units=km Length=0.0167267 bus1=udm7032.1.2 bus2=p1ulv3781.1.2 switch=n enabled=y phases=2 Linecode=1P_OH_AL_2/0_Rucina_0_416_0_2_2

New Line.l(r:udm7032-udt1784lv) Units=km Length=0.0171025 bus1=udt1784lv.1.2 bus2=udm7032.1.2 switch=n enabled=y phases=2 Linecode=1P_OH_AL_2/0_Rucina_0_416_0_2_2

New Line.l(r:p1ulv3785-udt1785lv) Units=km Length=0.0173706 bus1=udt1785lv.1.2 bus2=p1ulv3785.1.2 switch=n enabled=y phases=2 Linecode=1P_OH_AL_2/0_Rucina_0_416_0_2_2

New Line.l(r:p1ulv3786-udt1785lv) Units=km Length=0.0165869 bus1=udt1785lv.1.2 bus2=p1ulv3786.1.2 switch=n enabled=y phases=2 Linecode=1P_OH_AL_2/0_Rucina_0_416_0_2_2

New Line.l(r:p1ulv3788-udt1785lv) Units=km Length=0.0173449 bus1=udt1785lv.1.2 bus2=p1ulv3788.1.2 switch=n enabled=y phases=2 Linecode=1P_OH_AL_2/0_Rucina_0_416_0_2_2

New Line.l(r:p1ulv3793-udt1787lv) Units=km Length=0.00956795 bus1=udt1787lv.1.2 bus2=p1ulv3793.1.2 switch=n enabled=y phases=2 Linecode=1P_OH_AL_2/0_Rucina_0_416_0_2_2

New Line.l(r:p1ulv3791-udm7040) Units=km Length=0.005076850000000001 bus1=udm7040.1.2 bus2=p1ulv3791.1.2 switch=n enabled=y phases=2 Linecode=1P_OH_AL_2/0_Rucina_0_416_0_2_2

New Line.l(r:udm7040-udt1787lv) Units=km Length=0.017911000000000003 bus1=udt1787lv.1.2 bus2=udm7040.1.2 switch=n enabled=y phases=2 Linecode=1P_OH_AL_2/0_Rucina_0_416_0_2_2

New Line.l(r:p1ulv3792-udm7041) Units=km Length=0.00890969 bus1=udm7041.1.2 bus2=p1ulv3792.1.2 switch=n enabled=y phases=2 Linecode=1P_OH_AL_2/0_Rucina_0_416_0_2_2

New Line.l(r:udm7041-udt1787lv) Units=km Length=0.0179111 bus1=udt1787lv.1.2 bus2=udm7041.1.2 switch=n enabled=y phases=2 Linecode=1P_OH_AL_2/0_Rucina_0_416_0_2_2

New Line.l(r:p1ulv11121-udt1788lv) Units=km Length=0.0123336 bus1=udt1788lv.1.2 bus2=p1ulv11121.1.2 switch=n enabled=y phases=2 Linecode=1P_OH_AL_2/0_Rucina_0_416_0_2_2

New Line.l(r:p1ulv28458-udt1788lv) Units=km Length=0.00826755 bus1=udt1788lv.1.2 bus2=p1ulv28458.1.2 switch=n enabled=y phases=2 Linecode=1P_OH_AL_2/0_Rucina_0_416_0_2_2

New Line.l(r:p1ulv3795-udm7043) Units=km Length=0.010845 bus1=udm7043.1.2 bus2=p1ulv3795.1.2 switch=n enabled=y phases=2 Linecode=1P_OH_AL_2/0_Rucina_0_416_0_2_2

New Line.l(r:p1ulv29869-udm7043) Units=km Length=0.00622142 bus1=udm7043.1.2 bus2=p1ulv29869.1.2 switch=n enabled=y phases=2 Linecode=1P_OH_AL_2/0_Rucina_0_416_0_2_2

New Line.l(r:udm7043-udt1788lv) Units=km Length=0.0179111 bus1=udt1788lv.1.2 bus2=udm7043.1.2 switch=n enabled=y phases=2 Linecode=1P_OH_AL_2/0_Rucina_0_416_0_2_2

New Line.l(r:p1ulv3806-udm7044) Units=km Length=0.012245 bus1=udm7044.1.2 bus2=p1ulv3806.1.2 switch=n enabled=y phases=2 Linecode=1P_OH_AL_2/0_Rucina_0_416_0_2_2

New Line.l(r:udm7044-udt1788lv) Units=km Length=0.017911000000000003 bus1=udt1788lv.1.2 bus2=udm7044.1.2 switch=n enabled=y phases=2 Linecode=1P_OH_AL_2/0_Rucina_0_416_0_2_2

New Line.l(r:p1ulv3799-udt1791lv) Units=km Length=0.0124498 bus1=udt1791lv.1.2 bus2=p1ulv3799.1.2 switch=n enabled=y phases=2 Linecode=1P_OH_AL_2/0_Rucina_0_416_0_2_2

New Line.l(r:p1ulv46093-udt1791lv) Units=km Length=0.0123429 bus1=udt1791lv.1.2 bus2=p1ulv46093.1.2 switch=n enabled=y phases=2 Linecode=1P_OH_AL_2/0_Rucina_0_416_0_2_2

New Line.l(r:p1ulv29045-udm7051) Units=km Length=0.02052 bus1=udm7051.1.2 bus2=p1ulv29045.1.2 switch=n enabled=y phases=2 Linecode=1P_OH_AL_2/0_Rucina_0_416_0_2_2

New Line.l(r:udm7051-udt1791lv) Units=km Length=0.0195119 bus1=udt1791lv.1.2 bus2=udm7051.1.2 switch=n enabled=y phases=2 Linecode=1P_OH_AL_2/0_Rucina_0_416_0_2_2

New Line.l(r:p1ulv3807-udt1796lv) Units=km Length=0.00462819 bus1=udt1796lv.1.2 bus2=p1ulv3807.1.2 switch=n enabled=y phases=2 Linecode=1P_UG_AL_4/0_Sweetbriar_0_416_0_2_2

New Line.l(r:p1ulv42549-udt1925lv) Units=km Length=0.0209593 bus1=udt1925lv.1.2 bus2=p1ulv42549.1.2 switch=n enabled=y phases=2 Linecode=1P_OH_AL_2/0_Rucina_0_416_0_2_2

New Line.l(r:p1ulv4331-udm7722) Units=km Length=0.0218402 bus1=udm7722.1.2 bus2=p1ulv4331.1.2 switch=n enabled=y phases=2 Linecode=1P_OH_AL_2/0_Rucina_0_416_0_2_2

New Line.l(r:p1ulv38016-udm7724) Units=km Length=0.0235498 bus1=udm7724.1.2 bus2=p1ulv38016.1.2 switch=n enabled=y phases=2 Linecode=1P_OH_AL_2/0_Rucina_0_416_0_2_2

New Line.l(r:udm7722-udm7724) Units=km Length=0.014077500000000001 bus1=udm7722.1.2 bus2=udm7724.1.2 switch=n enabled=y phases=2 Linecode=1P_OH_AL_2/0_Rucina_0_416_0_2_2

New Line.l(r:udm7722-udt1925lv) Units=km Length=0.0320475 bus1=udt1925lv.1.2 bus2=udm7722.1.2 switch=n enabled=y phases=2 Linecode=1P_OH_AL_4/0_Zuzara_0_416_0_2_2

New Line.l(r:p1ulv39296-udm7725) Units=km Length=0.0218263 bus1=udm7725.1.2 bus2=p1ulv39296.1.2 switch=n enabled=y phases=2 Linecode=1P_OH_AL_2/0_Rucina_0_416_0_2_2

New Line.l(r:p1ulv35538-udm7723) Units=km Length=0.02252 bus1=udm7723.1.2 bus2=p1ulv35538.1.2 switch=n enabled=y phases=2 Linecode=1P_OH_AL_2/0_Rucina_0_416_0_2_2

New Line.l(r:udm7723-udm7725) Units=km Length=0.0817581 bus1=udm7725.1.2 bus2=udm7723.1.2 switch=n enabled=y phases=2 Linecode=1P_OH_AL_4/0_Zuzara_0_416_0_2_2

New Line.l(r:udm7725-udt1925lv) Units=km Length=0.01799 bus1=udt1925lv.1.2 bus2=udm7725.1.2 switch=n enabled=y phases=2 Linecode=1P_OH_AL_2/0_Rucina_0_416_0_2_2

New Line.l(r:p1ulv4332-udt1926lv) Units=km Length=0.0162071 bus1=udt1926lv.1.2 bus2=p1ulv4332.1.2 switch=n enabled=y phases=2 Linecode=1P_OH_AL_2/0_Rucina_0_416_0_2_2

New Line.l(r:p1ulv31412-udm7728) Units=km Length=0.021289700000000005 bus1=udm7728.1.2 bus2=p1ulv31412.1.2 switch=n enabled=y phases=2 Linecode=1P_OH_AL_2/0_Rucina_0_416_0_2_2

New Line.l(r:udm7728-udt1926lv) Units=km Length=0.019907700000000004 bus1=udt1926lv.1.2 bus2=udm7728.1.2 switch=n enabled=y phases=2 Linecode=1P_OH_AL_2/0_Rucina_0_416_0_2_2

New Line.l(r:p1ulv4334-udt1928lv) Units=km Length=0.0202792 bus1=udt1928lv.1.2 bus2=p1ulv4334.1.2 switch=n enabled=y phases=2 Linecode=1P_OH_AL_2/0_Rucina_0_416_0_2_2

New Line.l(r:p1ulv4336-udt1928lv) Units=km Length=0.019246 bus1=udt1928lv.1.2 bus2=p1ulv4336.1.2 switch=n enabled=y phases=2 Linecode=1P_OH_AL_2/0_Rucina_0_416_0_2_2

New Line.l(r:p1ulv42591-udm7735) Units=km Length=0.0187315 bus1=udm7735.1.2 bus2=p1ulv42591.1.2 switch=n enabled=y phases=2 Linecode=1P_OH_AL_2/0_Rucina_0_416_0_2_2

New Line.l(r:p1ulv41149-udm7734) Units=km Length=0.0185774 bus1=udm7734.1.2 bus2=p1ulv41149.1.2 switch=n enabled=y phases=2 Linecode=1P_OH_AL_2/0_Rucina_0_416_0_2_2

New Line.l(r:udm7734-udm7735) Units=km Length=0.019631100000000002 bus1=udm7735.1.2 bus2=udm7734.1.2 switch=n enabled=y phases=2 Linecode=1P_OH_AL_2/0_Rucina_0_416_0_2_2

New Line.l(r:udm7735-udt1928lv) Units=km Length=0.0196408 bus1=udt1928lv.1.2 bus2=udm7735.1.2 switch=n enabled=y phases=2 Linecode=1P_OH_AL_2/0_Rucina_0_416_0_2_2

New Line.l(r:p1ulv45432-udm7736) Units=km Length=0.0160107 bus1=udm7736.1.2 bus2=p1ulv45432.1.2 switch=n enabled=y phases=2 Linecode=1P_OH_AL_2/0_Rucina_0_416_0_2_2

New Line.l(r:udm7736-udt1928lv) Units=km Length=0.0392719 bus1=udt1928lv.1.2 bus2=udm7736.1.2 switch=n enabled=y phases=2 Linecode=1P_OH_AL_4/0_Zuzara_0_416_0_2_2

New Line.l(r:p1ulv4337-udt1930lv) Units=km Length=0.0199726 bus1=udt1930lv.1.2 bus2=p1ulv4337.1.2 switch=n enabled=y phases=2 Linecode=1P_OH_AL_2/0_Rucina_0_416_0_2_2

New Line.l(r:p1ulv50542-udt1930lv) Units=km Length=0.0205269 bus1=udt1930lv.1.2 bus2=p1ulv50542.1.2 switch=n enabled=y phases=2 Linecode=1P_OH_AL_2/0_Rucina_0_416_0_2_2

New Line.l(r:p1ulv28814-udm7739) Units=km Length=0.0204813 bus1=udm7739.1.2 bus2=p1ulv28814.1.2 switch=n enabled=y phases=2 Linecode=1P_OH_AL_2/0_Rucina_0_416_0_2_2

New Line.l(r:udm7739-udt1930lv) Units=km Length=0.0199861 bus1=udt1930lv.1.2 bus2=udm7739.1.2 switch=n enabled=y phases=2 Linecode=1P_OH_AL_2/0_Rucina_0_416_0_2_2

New Line.l(r:p1ulv4750-udm8558) Units=km Length=0.0416919 bus1=udm8558.1.2 bus2=p1ulv4750.1.2 switch=n enabled=y phases=2 Linecode=1P_UG_AL_1/0_Brenau_0_416_0_2_2

New Line.l(r:p1ulv47652-udm8559) Units=km Length=0.00918852 bus1=udm8559.1.2 bus2=p1ulv47652.1.2 switch=n enabled=y phases=2 Linecode=1P_OH_AL_2/0_Rucina_0_416_0_2_2

New Line.l(r:udm8558-udm8559) Units=km Length=0.0483071 bus1=udm8558.1.2 bus2=udm8559.1.2 switch=n enabled=y phases=2 Linecode=1P_OH_AL_4/0_Zuzara_0_416_0_2_2

New Line.l(r:udm8558-udt2128lv) Units=km Length=0.0099505 bus1=udt2128lv.1.2 bus2=udm8558.1.2 switch=n enabled=y phases=2 Linecode=1P_UG_AL_1/0_Brenau_0_416_0_2_2

New Line.l(r:p1ulv33859-udt2945lv) Units=km Length=0.0207504 bus1=udt2945lv.1.2 bus2=p1ulv33859.1.2 switch=n enabled=y phases=2 Linecode=1P_UG_AL_1/0_Brenau_0_416_0_2_2

New Line.l(r:p1ulv6483-udm11740) Units=km Length=0.014718700000000001 bus1=udm11740.1.2 bus2=p1ulv6483.1.2 switch=n enabled=y phases=2 Linecode=1P_UG_AL_1/0_Brenau_0_416_0_2_2

New Line.l(r:p1ulv39205-udm11740) Units=km Length=0.0170726 bus1=udm11740.1.2 bus2=p1ulv39205.1.2 switch=n enabled=y phases=2 Linecode=1P_UG_AL_1/0_Brenau_0_416_0_2_2

New Line.l(r:udm11740-udt2945lv) Units=km Length=0.00930065 bus1=udt2945lv.1.2 bus2=udm11740.1.2 switch=n enabled=y phases=2 Linecode=1P_UG_AL_1/0_Brenau_0_416_0_2_2

New Line.l(r:p1ulv22782-udm11741) Units=km Length=0.0156761 bus1=udm11741.1.2 bus2=p1ulv22782.1.2 switch=n enabled=y phases=2 Linecode=1P_UG_AL_1/0_Brenau_0_416_0_2_2

New Line.l(r:udm11741-udt2945lv) Units=km Length=0.0186115 bus1=udt2945lv.1.2 bus2=udm11741.1.2 switch=n enabled=y phases=2 Linecode=1P_UG_AL_1/0_Brenau_0_416_0_2_2

New Line.l(r:p1ulv6489-udm11753) Units=km Length=0.014851800000000002 bus1=udm11753.1.2 bus2=p1ulv6489.1.2 switch=n enabled=y phases=2 Linecode=1P_UG_AL_1/0_Brenau_0_416_0_2_2

New Line.l(r:p1ulv35472-udm11753) Units=km Length=0.0129756 bus1=udm11753.1.2 bus2=p1ulv35472.1.2 switch=n enabled=y phases=2 Linecode=1P_UG_AL_1/0_Brenau_0_416_0_2_2

New Line.l(r:p1ulv47689-udm11753) Units=km Length=0.016812300000000002 bus1=udm11753.1.2 bus2=p1ulv47689.1.2 switch=n enabled=y phases=2 Linecode=1P_UG_AL_1/0_Brenau_0_416_0_2_2

New Line.l(r:p1ulv42806-udm11757) Units=km Length=0.017424100000000005 bus1=udm11757.1.2 bus2=p1ulv42806.1.2 switch=n enabled=y phases=2 Linecode=1P_UG_AL_1/0_Brenau_0_416_0_2_2

New Line.l(r:udm11753-udm11757) Units=km Length=0.00930065 bus1=udm11753.1.2 bus2=udm11757.1.2 switch=n enabled=y phases=2 Linecode=1P_UG_AL_1/0_Brenau_0_416_0_2_2

New Line.l(r:udm11753-udt2950lv) Units=km Length=0.00931077 bus1=udt2950lv.1.2 bus2=udm11753.1.2 switch=n enabled=y phases=2 Linecode=1P_UG_AL_4/0_Sweetbriar_0_416_0_2_2

New Line.l(r:p1ulv35108-udm11754) Units=km Length=0.0083949 bus1=udm11754.1.2 bus2=p1ulv35108.1.2 switch=n enabled=y phases=2 Linecode=1P_UG_AL_1/0_Brenau_0_416_0_2_2

New Line.l(r:p1ulv42481-udm11754) Units=km Length=0.0179083 bus1=udm11754.1.2 bus2=p1ulv42481.1.2 switch=n enabled=y phases=2 Linecode=1P_UG_AL_1/0_Brenau_0_416_0_2_2

New Line.l(r:udm11754-udt2950lv) Units=km Length=0.0578827 bus1=udt2950lv.1.2 bus2=udm11754.1.2 switch=n enabled=y phases=2 Linecode=1P_UG_AL_1/0_Brenau_0_416_0_2_2

New Line.l(r:p1ulv6492-udm11766) Units=km Length=0.0108966 bus1=udm11766.1.2 bus2=p1ulv6492.1.2 switch=n enabled=y phases=2 Linecode=1P_UG_AL_1/0_Brenau_0_416_0_2_2

New Line.l(r:p1ulv37008-udm11766) Units=km Length=0.0145124 bus1=udm11766.1.2 bus2=p1ulv37008.1.2 switch=n enabled=y phases=2 Linecode=1P_UG_AL_1/0_Brenau_0_416_0_2_2

New Line.l(r:udm11766-udt2953lv) Units=km Length=0.01816 bus1=udt2953lv.1.2 bus2=udm11766.1.2 switch=n enabled=y phases=2 Linecode=1P_UG_AL_1/0_Brenau_0_416_0_2_2

New Line.l(r:p1ulv31975-udm11767) Units=km Length=0.0143866 bus1=udm11767.1.2 bus2=p1ulv31975.1.2 switch=n enabled=y phases=2 Linecode=1P_UG_AL_1/0_Brenau_0_416_0_2_2

New Line.l(r:p1ulv48898-udm11769) Units=km Length=0.0147071 bus1=udm11769.1.2 bus2=p1ulv48898.1.2 switch=n enabled=y phases=2 Linecode=1P_UG_AL_1/0_Brenau_0_416_0_2_2

New Line.l(r:udm11767-udm11769) Units=km Length=0.00920157 bus1=udm11767.1.2 bus2=udm11769.1.2 switch=n enabled=y phases=2 Linecode=1P_UG_AL_1/0_Brenau_0_416_0_2_2

New Line.l(r:udm11767-udt2953lv) Units=km Length=0.00920176 bus1=udt2953lv.1.2 bus2=udm11767.1.2 switch=n enabled=y phases=2 Linecode=1P_UG_AL_1/0_Brenau_0_416_0_2_2

New Line.l(r:p1ulv27280-udt2957lv) Units=km Length=0.0201904 bus1=udt2957lv.1.2 bus2=p1ulv27280.1.2 switch=n enabled=y phases=2 Linecode=1P_UG_AL_1/0_Brenau_0_416_0_2_2

New Line.l(r:p1ulv6496-udm11776) Units=km Length=0.0201395 bus1=udm11776.1.2 bus2=p1ulv6496.1.2 switch=n enabled=y phases=2 Linecode=1P_UG_AL_1/0_Brenau_0_416_0_2_2

New Line.l(r:udm11776-udt2957lv) Units=km Length=0.00999032 bus1=udt2957lv.1.2 bus2=udm11776.1.2 switch=n enabled=y phases=2 Linecode=1P_UG_AL_1/0_Brenau_0_416_0_2_2

New Line.l(r:p1ulv35539-udm11778) Units=km Length=0.016368000000000004 bus1=udm11778.1.2 bus2=p1ulv35539.1.2 switch=n enabled=y phases=2 Linecode=1P_UG_AL_1/0_Brenau_0_416_0_2_2

New Line.l(r:udm11778-udt2957lv) Units=km Length=0.0200006 bus1=udt2957lv.1.2 bus2=udm11778.1.2 switch=n enabled=y phases=2 Linecode=1P_UG_AL_1/0_Brenau_0_416_0_2_2

New Line.l(r:p1ulv27402-udt5061lv) Units=km Length=0.00315373 bus1=udt5061lv.1.2 bus2=p1ulv27402.1.2 switch=n enabled=y phases=2 Linecode=1P_UG_AL_4/0_Sweetbriar_0_416_0_2_2

New Line.l(r:p1ulv11120-udm19060) Units=km Length=0.0108516 bus1=udm19060.1.2 bus2=p1ulv11120.1.2 switch=n enabled=y phases=2 Linecode=1P_UG_AL_1/0_Brenau_0_416_0_2_2

New Line.l(r:udm19060-udt5061lv) Units=km Length=0.00978591 bus1=udt5061lv.1.2 bus2=udm19060.1.2 switch=n enabled=y phases=2 Linecode=1P_UG_AL_1/0_Brenau_0_416_0_2_2

New Line.l(r:p1ulv11123-udm19062) Units=km Length=0.0135626 bus1=udm19062.1.2 bus2=p1ulv11123.1.2 switch=n enabled=y phases=2 Linecode=1P_UG_AL_1/0_Brenau_0_416_0_2_2

New Line.l(r:udm19062-udt5062lv) Units=km Length=0.00936077 bus1=udt5062lv.1.2 bus2=udm19062.1.2 switch=n enabled=y phases=2 Linecode=1P_UG_AL_1/0_Brenau_0_416_0_2_2

New Line.l(r:p1ulv31406-udm19063) Units=km Length=0.0107098 bus1=udm19063.1.2 bus2=p1ulv31406.1.2 switch=n enabled=y phases=2 Linecode=1P_UG_AL_1/0_Brenau_0_416_0_2_2
