New Line.l(r:p1ulv6201-udt2832lv) Units=km Length=0.052217 bus1=udt2832lv.1.2 bus2=p1ulv6201.1.2 switch=n enabled=y phases=2 Linecode=1P_UG_AL_1/0_Brenau_0_416_0_2_2

New Line.l(r:p1ulv7773-udt2832lv) Units=km Length=0.0334052 bus1=udt2832lv.1.2 bus2=p1ulv7773.1.2 switch=n enabled=y phases=2 Linecode=1P_UG_AL_1/0_Brenau_0_416_0_2_2

New Line.l(r:p1ulv7774-udt2832lv) Units=km Length=0.0380636 bus1=udt2832lv.1.2 bus2=p1ulv7774.1.2 switch=n enabled=y phases=2 Linecode=1P_UG_AL_1/0_Brenau_0_416_0_2_2

New Line.l(r:p1ulv7775-udt2832lv) Units=km Length=0.0422126 bus1=udt2832lv.1.2 bus2=p1ulv7775.1.2 switch=n enabled=y phases=2 Linecode=1P_UG_AL_1/0_Brenau_0_416_0_2_2

New Line.l(r:p1ulv7776-udt2832lv) Units=km Length=0.046721 bus1=udt2832lv.1.2 bus2=p1ulv7776.1.2 switch=n enabled=y phases=2 Linecode=1P_UG_AL_1/0_Brenau_0_416_0_2_2

New Line.l(r:p1ulv6228-udm11324) Units=km Length=0.0134499 bus1=udm11324.1.2 bus2=p1ulv6228.1.2 switch=n enabled=y phases=2 Linecode=1P_UG_AL_1/0_Brenau_0_416_0_2_2

New Line.l(r:udm11324-udt2832lv) Units=km Length=0.0569971 bus1=udt2832lv.1.2 bus2=udm11324.1.2 switch=n enabled=y phases=2 Linecode=1P_UG_AL_1/0_Brenau_0_416_0_2_2

New Line.l(r:p1ulv7772-udm11325) Units=km Length=0.0270217 bus1=udm11325.1.2 bus2=p1ulv7772.1.2 switch=n enabled=y phases=2 Linecode=1P_UG_AL_1/0_Brenau_0_416_0_2_2

New Line.l(r:udm11325-udt2832lv) Units=km Length=0.00890014 bus1=udt2832lv.1.2 bus2=udm11325.1.2 switch=n enabled=y phases=2 Linecode=1P_UG_AL_1/0_Brenau_0_416_0_2_2

New Line.l(r:p1ulv6208-udt2833lv) Units=km Length=0.0179799 bus1=udt2833lv.1.2 bus2=p1ulv6208.1.2 switch=n enabled=y phases=2 Linecode=1P_UG_AL_1/0_Brenau_0_416_0_2_2

New Line.l(r:p1ulv6202-udm11330) Units=km Length=0.0215556 bus1=udm11330.1.2 bus2=p1ulv6202.1.2 switch=n enabled=y phases=2 Linecode=1P_UG_AL_1/0_Brenau_0_416_0_2_2

New Line.l(r:p1ulv6203-udm11330) Units=km Length=0.030051 bus1=udm11330.1.2 bus2=p1ulv6203.1.2 switch=n enabled=y phases=2 Linecode=1P_UG_AL_1/0_Brenau_0_416_0_2_2

New Line.l(r:p1ulv6204-udm11330) Units=km Length=0.03659490000000001 bus1=udm11330.1.2 bus2=p1ulv6204.1.2 switch=n enabled=y phases=2 Linecode=1P_UG_AL_1/0_Brenau_0_416_0_2_2

New Line.l(r:p1ulv6205-udm11330) Units=km Length=0.0415017 bus1=udm11330.1.2 bus2=p1ulv6205.1.2 switch=n enabled=y phases=2 Linecode=1P_UG_AL_1/0_Brenau_0_416_0_2_2

New Line.l(r:p1ulv6206-udm11330) Units=km Length=0.0465207 bus1=udm11330.1.2 bus2=p1ulv6206.1.2 switch=n enabled=y phases=2 Linecode=1P_UG_AL_1/0_Brenau_0_416_0_2_2

New Line.l(r:p1ulv6207-udm11330) Units=km Length=0.0524078 bus1=udm11330.1.2 bus2=p1ulv6207.1.2 switch=n enabled=y phases=2 Linecode=1P_UG_AL_1/0_Brenau_0_416_0_2_2

New Line.l(r:udm11330-udt2833lv) Units=km Length=0.00715605 bus1=udt2833lv.1.2 bus2=udm11330.1.2 switch=n enabled=y phases=2 Linecode=1P_UG_AL_4/0_Sweetbriar_0_416_0_2_2

New Line.l(r:p1ulv6209-udm11337) Units=km Length=0.015578300000000002 bus1=udm11337.1.2 bus2=p1ulv6209.1.2 switch=n enabled=y phases=2 Linecode=1P_UG_AL_1/0_Brenau_0_416_0_2_2

New Line.l(r:p1ulv6210-udm11337) Units=km Length=0.015037000000000002 bus1=udm11337.1.2 bus2=p1ulv6210.1.2 switch=n enabled=y phases=2 Linecode=1P_UG_AL_1/0_Brenau_0_416_0_2_2

New Line.l(r:p1ulv6214-udm11339) Units=km Length=0.0204085 bus1=udm11339.1.2 bus2=p1ulv6214.1.2 switch=n enabled=y phases=2 Linecode=1P_UG_AL_1/0_Brenau_0_416_0_2_2

New Line.l(r:p1ulv6226-udm11339) Units=km Length=0.013604800000000002 bus1=udm11339.1.2 bus2=p1ulv6226.1.2 switch=n enabled=y phases=2 Linecode=1P_UG_AL_1/0_Brenau_0_416_0_2_2

New Line.l(r:udm11337-udm11339) Units=km Length=0.0443099 bus1=udm11337.1.2 bus2=udm11339.1.2 switch=n enabled=y phases=2 Linecode=1P_UG_AL_1/0_Brenau_0_416_0_2_2

New Line.l(r:udm11337-udt2833lv) Units=km Length=0.0071645300000000006 bus1=udt2833lv.1.2 bus2=udm11337.1.2 switch=n enabled=y phases=2 Linecode=1P_UG_AL_4/0_Sweetbriar_0_416_0_2_2

New Line.l(r:p1ulv6217-udt2834lv) Units=km Length=0.0178818 bus1=udt2834lv.1.2 bus2=p1ulv6217.1.2 switch=n enabled=y phases=2 Linecode=1P_UG_AL_1/0_Brenau_0_416_0_2_2

New Line.l(r:p1ulv6215-udm11342) Units=km Length=0.019396 bus1=udm11342.1.2 bus2=p1ulv6215.1.2 switch=n enabled=y phases=2 Linecode=1P_UG_AL_1/0_Brenau_0_416_0_2_2

New Line.l(r:p1ulv6216-udm11342) Units=km Length=0.0189911 bus1=udm11342.1.2 bus2=p1ulv6216.1.2 switch=n enabled=y phases=2 Linecode=1P_UG_AL_1/0_Brenau_0_416_0_2_2

New Line.l(r:p1ulv6227-udm11342) Units=km Length=0.0136623 bus1=udm11342.1.2 bus2=p1ulv6227.1.2 switch=n enabled=y phases=2 Linecode=1P_UG_AL_1/0_Brenau_0_416_0_2_2

New Line.l(r:udm11342-udt2834lv) Units=km Length=0.00933858 bus1=udt2834lv.1.2 bus2=udm11342.1.2 switch=n enabled=y phases=2 Linecode=1P_UG_AL_1/0_Brenau_0_416_0_2_2

New Line.l(r:p1ulv6218-udm11345) Units=km Length=0.0174456 bus1=udm11345.1.2 bus2=p1ulv6218.1.2 switch=n enabled=y phases=2 Linecode=1P_UG_AL_1/0_Brenau_0_416_0_2_2

New Line.l(r:p1ulv6219-udm11345) Units=km Length=0.0162069 bus1=udm11345.1.2 bus2=p1ulv6219.1.2 switch=n enabled=y phases=2 Linecode=1P_UG_AL_1/0_Brenau_0_416_0_2_2

New Line.l(r:p1ulv6212-udm11341) Units=km Length=0.0154354 bus1=udm11341.1.2 bus2=p1ulv6212.1.2 switch=n enabled=y phases=2 Linecode=1P_UG_AL_1/0_Brenau_0_416_0_2_2

New Line.l(r:udm11341-udm11345) Units=km Length=0.00717386 bus1=udm11345.1.2 bus2=udm11341.1.2 switch=n enabled=y phases=2 Linecode=1P_UG_AL_1/0_Brenau_0_416_0_2_2

New Line.l(r:udm11345-udt2834lv) Units=km Length=0.00933858 bus1=udt2834lv.1.2 bus2=udm11345.1.2 switch=n enabled=y phases=2 Linecode=1P_UG_AL_4/0_Sweetbriar_0_416_0_2_2

New Line.l(r:p1ulv6222-udt2835lv) Units=km Length=0.0148572 bus1=udt2835lv.1.2 bus2=p1ulv6222.1.2 switch=n enabled=y phases=2 Linecode=1P_UG_AL_1/0_Brenau_0_416_0_2_2

New Line.l(r:p1ulv6230-udt2835lv) Units=km Length=0.0143928 bus1=udt2835lv.1.2 bus2=p1ulv6230.1.2 switch=n enabled=y phases=2 Linecode=1P_UG_AL_1/0_Brenau_0_416_0_2_2

New Line.l(r:p1ulv6220-udm11348) Units=km Length=0.0143914 bus1=udm11348.1.2 bus2=p1ulv6220.1.2 switch=n enabled=y phases=2 Linecode=1P_UG_AL_1/0_Brenau_0_416_0_2_2

New Line.l(r:p1ulv32512-udm11348) Units=km Length=0.0636526 bus1=udm11348.1.2 bus2=p1ulv32512.1.2 switch=n enabled=y phases=2 Linecode=1P_UG_AL_1/0_Brenau_0_416_0_2_2

New Line.l(r:udm11348-udt2835lv) Units=km Length=0.00933858 bus1=udt2835lv.1.2 bus2=udm11348.1.2 switch=n enabled=y phases=2 Linecode=1P_UG_AL_4/0_Sweetbriar_0_416_0_2_2

New Line.l(r:p1ulv6223-udm11350) Units=km Length=0.0157839 bus1=udm11350.1.2 bus2=p1ulv6223.1.2 switch=n enabled=y phases=2 Linecode=1P_UG_AL_1/0_Brenau_0_416_0_2_2

New Line.l(r:p1ulv6231-udm11350) Units=km Length=0.0139996 bus1=udm11350.1.2 bus2=p1ulv6231.1.2 switch=n enabled=y phases=2 Linecode=1P_UG_AL_1/0_Brenau_0_416_0_2_2

New Line.l(r:p1ulv6225-udm11351) Units=km Length=0.0168676 bus1=udm11351.1.2 bus2=p1ulv6225.1.2 switch=n enabled=y phases=2 Linecode=1P_UG_AL_1/0_Brenau_0_416_0_2_2

New Line.l(r:p1ulv6233-udm11351) Units=km Length=0.0143347 bus1=udm11351.1.2 bus2=p1ulv6233.1.2 switch=n enabled=y phases=2 Linecode=1P_UG_AL_1/0_Brenau_0_416_0_2_2

New Line.l(r:udm11350-udm11351) Units=km Length=0.00934608 bus1=udm11350.1.2 bus2=udm11351.1.2 switch=n enabled=y phases=2 Linecode=1P_UG_AL_1/0_Brenau_0_416_0_2_2

New Line.l(r:udm11350-udt2835lv) Units=km Length=0.00933858 bus1=udt2835lv.1.2 bus2=udm11350.1.2 switch=n enabled=y phases=2 Linecode=1P_UG_AL_4/0_Sweetbriar_0_416_0_2_2

New Line.l(r:p1ulv6235-udt2837lv) Units=km Length=0.04339570000000001 bus1=udt2837lv.1.2 bus2=p1ulv6235.1.2 switch=n enabled=y phases=2 Linecode=1P_OH_AL_4/0_Zuzara_0_416_0_2_2

New Line.l(r:p1ulv6236-udt2837lv) Units=km Length=0.06174670000000001 bus1=udt2837lv.1.2 bus2=p1ulv6236.1.2 switch=n enabled=y phases=2 Linecode=1P_OH_AL_4/0_Zuzara_0_416_0_2_2

New Line.l(r:p1ulv6238-udm11366) Units=km Length=0.0591794 bus1=udm11366.1.2 bus2=p1ulv6238.1.2 switch=n enabled=y phases=2 Linecode=1P_UG_AL_1/0_Brenau_0_416_0_2_2

New Line.l(r:p1ulv6239-udm11367) Units=km Length=0.0795767 bus1=udm11367.1.2 bus2=p1ulv6239.1.2 switch=n enabled=y phases=2 Linecode=1P_UG_AL_1/0_Brenau_0_416_0_2_2

New Line.l(r:udm11366-udm11367) Units=km Length=0.00850371 bus1=udm11366.1.2 bus2=udm11367.1.2 switch=n enabled=y phases=2 Linecode=1P_UG_AL_1/0_Brenau_0_416_0_2_2

New Line.l(r:udm11366-udt2839lv) Units=km Length=0.0170255 bus1=udt2839lv.1.2 bus2=udm11366.1.2 switch=n enabled=y phases=2 Linecode=1P_UG_AL_4/0_Sweetbriar_0_416_0_2_2

New Line.l(r:p1ulv15126-udm11368) Units=km Length=0.0733239 bus1=udm11368.1.2 bus2=p1ulv15126.1.2 switch=n enabled=y phases=2 Linecode=1P_UG_AL_1/0_Brenau_0_416_0_2_2

New Line.l(r:p1ulv20140-udm11369) Units=km Length=0.0310849 bus1=udm11369.1.2 bus2=p1ulv20140.1.2 switch=n enabled=y phases=2 Linecode=1P_UG_AL_1/0_Brenau_0_416_0_2_2

New Line.l(r:udm11368-udm11369) Units=km Length=0.00804353 bus1=udm11368.1.2 bus2=udm11369.1.2 switch=n enabled=y phases=2 Linecode=1P_UG_AL_1/0_Brenau_0_416_0_2_2

New Line.l(r:udm11368-udt2839lv) Units=km Length=0.0165031 bus1=udt2839lv.1.2 bus2=udm11368.1.2 switch=n enabled=y phases=2 Linecode=1P_UG_AL_1/0_Brenau_0_416_0_2_2

New Line.l(r:p1ulv6240-udm11370) Units=km Length=0.091506 bus1=udm11370.1.2 bus2=p1ulv6240.1.2 switch=n enabled=y phases=2 Linecode=1P_OH_AL_4/0_Zuzara_0_416_0_2_2

New Line.l(r:p1ulv16704-udm11370) Units=km Length=0.030668 bus1=udm11370.1.2 bus2=p1ulv16704.1.2 switch=n enabled=y phases=2 Linecode=1P_OH_AL_4/0_Zuzara_0_416_0_2_2

New Line.l(r:p1ulv18650-udm11372) Units=km Length=0.0491495 bus1=udm11372.1.2 bus2=p1ulv18650.1.2 switch=n enabled=y phases=2 Linecode=1P_OH_AL_4/0_Zuzara_0_416_0_2_2

New Line.l(r:udm11370-udm11372) Units=km Length=0.0137409 bus1=udm11370.1.2 bus2=udm11372.1.2 switch=n enabled=y phases=2 Linecode=1P_OH_AL_2/0_Rucina_0_416_0_2_2

New Line.l(r:udm11370-udt2840lv) Units=km Length=0.0126206 bus1=udt2840lv.1.2 bus2=udm11370.1.2 switch=n enabled=y phases=2 Linecode=1P_OH_AL_2/0_Rucina_0_416_0_2_2

New Line.l(r:p1ulv37418-udm11374) Units=km Length=0.024002 bus1=udm11374.1.2 bus2=p1ulv37418.1.2 switch=n enabled=y phases=2 Linecode=1P_OH_AL_2/0_Rucina_0_416_0_2_2

New Line.l(r:p1ulv29250-udm11373) Units=km Length=0.0419669 bus1=udm11373.1.2 bus2=p1ulv29250.1.2 switch=n enabled=y phases=2 Linecode=1P_OH_AL_4/0_Zuzara_0_416_0_2_2

New Line.l(r:udm11373-udm11374) Units=km Length=0.0137909 bus1=udm11374.1.2 bus2=udm11373.1.2 switch=n enabled=y phases=2 Linecode=1P_OH_AL_2/0_Rucina_0_416_0_2_2

New Line.l(r:udm11374-udt2840lv) Units=km Length=0.0264247 bus1=udt2840lv.1.2 bus2=udm11374.1.2 switch=n enabled=y phases=2 Linecode=1P_OH_AL_2/0_Rucina_0_416_0_2_2

New Line.l(r:p1ulv6242-udt2841lv) Units=km Length=0.0416686 bus1=udt2841lv.1.2 bus2=p1ulv6242.1.2 switch=n enabled=y phases=2 Linecode=1P_OH_AL_4/0_Zuzara_0_416_0_2_2

New Line.l(r:p1ulv6241-udm11375) Units=km Length=0.0425766 bus1=udm11375.1.2 bus2=p1ulv6241.1.2 switch=n enabled=y phases=2 Linecode=1P_OH_AL_4/0_Zuzara_0_416_0_2_2

New Line.l(r:udm11375-udt2841lv) Units=km Length=0.0176502 bus1=udt2841lv.1.2 bus2=udm11375.1.2 switch=n enabled=y phases=2 Linecode=1P_OH_AL_2/0_Rucina_0_416_0_2_2

New Line.l(r:p1ulv6243-udm11377) Units=km Length=0.04209430000000001 bus1=udm11377.1.2 bus2=p1ulv6243.1.2 switch=n enabled=y phases=2 Linecode=1P_OH_AL_4/0_Zuzara_0_416_0_2_2

New Line.l(r:udm11377-udt2841lv) Units=km Length=0.0176502 bus1=udt2841lv.1.2 bus2=udm11377.1.2 switch=n enabled=y phases=2 Linecode=1P_OH_AL_2/0_Rucina_0_416_0_2_2

New Line.l(r:p1ulv6245-udm11379) Units=km Length=0.015697 bus1=udm11379.1.2 bus2=p1ulv6245.1.2 switch=n enabled=y phases=2 Linecode=1P_UG_AL_1/0_Brenau_0_416_0_2_2

New Line.l(r:p1ulv6244-udm11378) Units=km Length=0.0209425 bus1=udm11378.1.2 bus2=p1ulv6244.1.2 switch=n enabled=y phases=2 Linecode=1P_UG_AL_1/0_Brenau_0_416_0_2_2

New Line.l(r:udm11378-udm11379) Units=km Length=0.00989452 bus1=udm11379.1.2 bus2=udm11378.1.2 switch=n enabled=y phases=2 Linecode=1P_UG_AL_1/0_Brenau_0_416_0_2_2

New Line.l(r:udm11379-udt2842lv) Units=km Length=0.0184107 bus1=udt2842lv.1.2 bus2=udm11379.1.2 switch=n enabled=y phases=2 Linecode=1P_UG_AL_4/0_Sweetbriar_0_416_0_2_2

New Line.l(r:p1ulv13779-udm11380) Units=km Length=0.0221413 bus1=udm11380.1.2 bus2=p1ulv13779.1.2 switch=n enabled=y phases=2 Linecode=1P_UG_AL_1/0_Brenau_0_416_0_2_2

New Line.l(r:udm11380-udt2842lv) Units=km Length=0.0588405 bus1=udt2842lv.1.2 bus2=udm11380.1.2 switch=n enabled=y phases=2 Linecode=1P_UG_AL_1/0_Brenau_0_416_0_2_2

New Line.l(r:p1ulv6247-udt2843lv) Units=km Length=0.0415685 bus1=udt2843lv.1.2 bus2=p1ulv6247.1.2 switch=n enabled=y phases=2 Linecode=1P_OH_AL_4/0_Zuzara_0_416_0_2_2

New Line.l(r:p1ulv6246-udm11381) Units=km Length=0.041361300000000004 bus1=udm11381.1.2 bus2=p1ulv6246.1.2 switch=n enabled=y phases=2 Linecode=1P_OH_AL_4/0_Zuzara_0_416_0_2_2

New Line.l(r:udm11381-udt2843lv) Units=km Length=0.0184871 bus1=udt2843lv.1.2 bus2=udm11381.1.2 switch=n enabled=y phases=2 Linecode=1P_OH_AL_2/0_Rucina_0_416_0_2_2

New Line.l(r:p1ulv6248-udm11383) Units=km Length=0.04994280000000001 bus1=udm11383.1.2 bus2=p1ulv6248.1.2 switch=n enabled=y phases=2 Linecode=1P_OH_AL_4/0_Zuzara_0_416_0_2_2

New Line.l(r:udm11383-udt2843lv) Units=km Length=0.0184948 bus1=udt2843lv.1.2 bus2=udm11383.1.2 switch=n enabled=y phases=2 Linecode=1P_OH_AL_2/0_Rucina_0_416_0_2_2

New Line.l(r:p1ulv35709-udt2844lv) Units=km Length=0.0345671 bus1=udt2844lv.1.2 bus2=p1ulv35709.1.2 switch=n enabled=y phases=2 Linecode=1P_OH_AL_4/0_Zuzara_0_416_0_2_2

New Line.l(r:p1ulv6249-udm11384) Units=km Length=0.0295527 bus1=udm11384.1.2 bus2=p1ulv6249.1.2 switch=n enabled=y phases=2 Linecode=1P_OH_AL_4/0_Zuzara_0_416_0_2_2

New Line.l(r:udm11384-udt2844lv) Units=km Length=0.0147551 bus1=udt2844lv.1.2 bus2=udm11384.1.2 switch=n enabled=y phases=2 Linecode=1P_OH_AL_2/0_Rucina_0_416_0_2_2

New Line.l(r:p1ulv30858-udt3046lv) Units=km Length=0.0606687 bus1=udt3046lv.1.2 bus2=p1ulv30858.1.2 switch=n enabled=y phases=2 Linecode=1P_OH_AL_4/0_Zuzara_0_416_0_2_2

New Line.l(r:p1ulv8204-udm12039) Units=km Length=0.0106563 bus1=udm12039.1.2 bus2=p1ulv8204.1.2 switch=n enabled=y phases=2 Linecode=1P_OH_AL_2/0_Rucina_0_416_0_2_2

New Line.l(r:p1ulv6631-udm12037) Units=km Length=0.010889 bus1=udm12037.1.2 bus2=p1ulv6631.1.2 switch=n enabled=y phases=2 Linecode=1P_OH_AL_2/0_Rucina_0_416_0_2_2

New Line.l(r:p1ulv6633-udm12037) Units=km Length=0.00906608 bus1=udm12037.1.2 bus2=p1ulv6633.1.2 switch=n enabled=y phases=2 Linecode=1P_OH_AL_2/0_Rucina_0_416_0_2_2

New Line.l(r:udm12037-udm12039) Units=km Length=0.0165608 bus1=udm12039.1.2 bus2=udm12037.1.2 switch=n enabled=y phases=2 Linecode=1P_OH_AL_2/0_Rucina_0_416_0_2_2

New Line.l(r:udm12039-udt3046lv) Units=km Length=0.0360506 bus1=udt3046lv.1.2 bus2=udm12039.1.2 switch=n enabled=y phases=2 Linecode=1P_OH_AL_4/0_Zuzara_0_416_0_2_2

New Line.l(r:p1ulv30951-udm12041) Units=km Length=0.01987 bus1=udm12041.1.2 bus2=p1ulv30951.1.2 switch=n enabled=y phases=2 Linecode=1P_OH_AL_2/0_Rucina_0_416_0_2_2

New Line.l(r:udm12041-udt3046lv) Units=km Length=0.0193473 bus1=udt3046lv.1.2 bus2=udm12041.1.2 switch=n enabled=y phases=2 Linecode=1P_OH_AL_2/0_Rucina_0_416_0_2_2

New Line.l(r:p1ulv8201-udt3047lv) Units=km Length=0.0110615 bus1=udt3047lv.1.2 bus2=p1ulv8201.1.2 switch=n enabled=y phases=2 Linecode=1P_OH_AL_2/0_Rucina_0_416_0_2_2

New Line.l(r:p1ulv8203-udt3047lv) Units=km Length=0.00960533 bus1=udt3047lv.1.2 bus2=p1ulv8203.1.2 switch=n enabled=y phases=2 Linecode=1P_OH_AL_2/0_Rucina_0_416_0_2_2

New Line.l(r:p1ulv6632-udm12042) Units=km Length=0.00900002 bus1=udm12042.1.2 bus2=p1ulv6632.1.2 switch=n enabled=y phases=2 Linecode=1P_OH_AL_2/0_Rucina_0_416_0_2_2

New Line.l(r:p1ulv8202-udm12042) Units=km Length=0.010261700000000002 bus1=udm12042.1.2 bus2=p1ulv8202.1.2 switch=n enabled=y phases=2 Linecode=1P_OH_AL_2/0_Rucina_0_416_0_2_2

New Line.l(r:udm12042-udt3047lv) Units=km Length=0.0165525 bus1=udt3047lv.1.2 bus2=udm12042.1.2 switch=n enabled=y phases=2 Linecode=1P_OH_AL_2/0_Rucina_0_416_0_2_2

New Line.l(r:p1ulv8196-udm12043) Units=km Length=0.009512450000000002 bus1=udm12043.1.2 bus2=p1ulv8196.1.2 switch=n enabled=y phases=2 Linecode=1P_OH_AL_2/0_Rucina_0_416_0_2_2

New Line.l(r:p1ulv8197-udm12044) Units=km Length=0.00951783 bus1=udm12044.1.2 bus2=p1ulv8197.1.2 switch=n enabled=y phases=2 Linecode=1P_OH_AL_2/0_Rucina_0_416_0_2_2

New Line.l(r:udm12043-udm12044) Units=km Length=0.0145329 bus1=udm12043.1.2 bus2=udm12044.1.2 switch=n enabled=y phases=2 Linecode=1P_OH_AL_2/0_Rucina_0_416_0_2_2

New Line.l(r:udm12043-udt3047lv) Units=km Length=0.0165663 bus1=udt3047lv.1.2 bus2=udm12043.1.2 switch=n enabled=y phases=2 Linecode=1P_OH_AL_2/0_Rucina_0_416_0_2_2

New Line.l(r:p1ulv7389-udm13151) Units=km Length=0.0060203 bus1=udm13151.1.2 bus2=p1ulv7389.1.2 switch=n enabled=y phases=2 Linecode=1P_OH_AL_2/0_Rucina_0_416_0_2_2

New Line.l(r:p1ulv7394-udm13152) Units=km Length=0.0031328700000000003 bus1=udm13152.1.2 bus2=p1ulv7394.1.2 switch=n enabled=y phases=2 Linecode=1P_OH_AL_4_Periwinkle_0_416_0_2_2

New Line.l(r:udm13151-udm13152) Units=km Length=0.0181898 bus1=udm13151.1.2 bus2=udm13152.1.2 switch=n enabled=y phases=2 Linecode=1P_OH_AL_2/0_Rucina_0_416_0_2_2

New Line.l(r:udm13151-udt3343lv) Units=km Length=0.0181837 bus1=udt3343lv.1.2 bus2=udm13151.1.2 switch=n enabled=y phases=2 Linecode=1P_OH_AL_2/0_Rucina_0_416_0_2_2

New Line.l(r:p1ulv13406-udm13153) Units=km Length=0.0020169300000000005 bus1=udm13153.1.2 bus2=p1ulv13406.1.2 switch=n enabled=y phases=2 Linecode=1P_OH_AL_4_Periwinkle_0_416_0_2_2

New Line.l(r:udm13153-udt3343lv) Units=km Length=0.0492663 bus1=udt3343lv.1.2 bus2=udm13153.1.2 switch=n enabled=y phases=2 Linecode=1P_OH_AL_4/0_Zuzara_0_416_0_2_2

New Line.l(r:p1ulv7716-udt3518lv) Units=km Length=0.0299873 bus1=udt3518lv.1.2 bus2=p1ulv7716.1.2 switch=n enabled=y phases=2 Linecode=1P_OH_AL_4/0_Zuzara_0_416_0_2_2

New Line.l(r:p1ulv7717-udm13771) Units=km Length=0.0152455 bus1=udm13771.1.2 bus2=p1ulv7717.1.2 switch=n enabled=y phases=2 Linecode=1P_UG_AL_1/0_Brenau_0_416_0_2_2

New Line.l(r:p1ulv7718-udm13771) Units=km Length=0.0142842 bus1=udm13771.1.2 bus2=p1ulv7718.1.2 switch=n enabled=y phases=2 Linecode=1P_UG_AL_1/0_Brenau_0_416_0_2_2

New Line.l(r:p1ulv7720-udm13771) Units=km Length=0.0153555 bus1=udm13771.1.2 bus2=p1ulv7720.1.2 switch=n enabled=y phases=2 Linecode=1P_UG_AL_1/0_Brenau_0_416_0_2_2

New Line.l(r:p1ulv7735-udm13771) Units=km Length=0.012412300000000001 bus1=udm13771.1.2 bus2=p1ulv7735.1.2 switch=n enabled=y phases=2 Linecode=1P_UG_AL_1/0_Brenau_0_416_0_2_2

New Line.l(r:udm13771-udt3519lv) Units=km Length=0.00722582 bus1=udt3519lv.1.2 bus2=udm13771.1.2 switch=n enabled=y phases=2 Linecode=1P_UG_AL_4/0_Sweetbriar_0_416_0_2_2

New Line.l(r:p1ulv7736-udm13775) Units=km Length=0.015288000000000001 bus1=udm13775.1.2 bus2=p1ulv7736.1.2 switch=n enabled=y phases=2 Linecode=1P_UG_AL_1/0_Brenau_0_416_0_2_2

New Line.l(r:p1ulv7737-udm13776) Units=km Length=0.0157351 bus1=udm13776.1.2 bus2=p1ulv7737.1.2 switch=n enabled=y phases=2 Linecode=1P_UG_AL_1/0_Brenau_0_416_0_2_2

New Line.l(r:udm13775-udm13776) Units=km Length=0.0071191100000000005 bus1=udm13775.1.2 bus2=udm13776.1.2 switch=n enabled=y phases=2 Linecode=1P_UG_AL_1/0_Brenau_0_416_0_2_2

New Line.l(r:udm13775-udt3519lv) Units=km Length=0.00722901 bus1=udt3519lv.1.2 bus2=udm13775.1.2 switch=n enabled=y phases=2 Linecode=1P_UG_AL_1/0_Brenau_0_416_0_2_2

New Line.l(r:p1ulv7723-udt3520lv) Units=km Length=0.014825800000000002 bus1=udt3520lv.1.2 bus2=p1ulv7723.1.2 switch=n enabled=y phases=2 Linecode=1P_UG_AL_1/0_Brenau_0_416_0_2_2

New Line.l(r:p1ulv7724-udt3520lv) Units=km Length=0.014908 bus1=udt3520lv.1.2 bus2=p1ulv7724.1.2 switch=n enabled=y phases=2 Linecode=1P_UG_AL_1/0_Brenau_0_416_0_2_2

New Line.l(r:p1ulv7746-udt3520lv) Units=km Length=0.0141867 bus1=udt3520lv.1.2 bus2=p1ulv7746.1.2 switch=n enabled=y phases=2 Linecode=1P_UG_AL_1/0_Brenau_0_416_0_2_2

New Line.l(r:p1ulv7722-udm13778) Units=km Length=0.0162704 bus1=udm13778.1.2 bus2=p1ulv7722.1.2 switch=n enabled=y phases=2 Linecode=1P_UG_AL_1/0_Brenau_0_416_0_2_2

New Line.l(r:p1ulv7752-udm13778) Units=km Length=0.0155566 bus1=udm13778.1.2 bus2=p1ulv7752.1.2 switch=n enabled=y phases=2 Linecode=1P_UG_AL_1/0_Brenau_0_416_0_2_2

New Line.l(r:p1ulv7721-udm13777) Units=km Length=0.0176457 bus1=udm13777.1.2 bus2=p1ulv7721.1.2 switch=n enabled=y phases=2 Linecode=1P_UG_AL_1/0_Brenau_0_416_0_2_2

New Line.l(r:p1ulv7744-udm13777) Units=km Length=0.014723000000000002 bus1=udm13777.1.2 bus2=p1ulv7744.1.2 switch=n enabled=y phases=2 Linecode=1P_UG_AL_1/0_Brenau_0_416_0_2_2

New Line.l(r:p1ulv7743-udm13781) Units=km Length=0.014799 bus1=udm13781.1.2 bus2=p1ulv7743.1.2 switch=n enabled=y phases=2 Linecode=1P_UG_AL_1/0_Brenau_0_416_0_2_2

New Line.l(r:udm13777-udm13781) Units=km Length=0.0082201 bus1=udm13777.1.2 bus2=udm13781.1.2 switch=n enabled=y phases=2 Linecode=1P_UG_AL_1/0_Brenau_0_416_0_2_2

New Line.l(r:udm13777-udm13778) Units=km Length=0.008213400000000001 bus1=udm13778.1.2 bus2=udm13777.1.2 switch=n enabled=y phases=2 Linecode=1P_UG_AL_2/0_Converse_0_416_0_2_2

New Line.l(r:udm13778-udt3520lv) Units=km Length=0.00779483 bus1=udt3520lv.1.2 bus2=udm13778.1.2 switch=n enabled=y phases=2 Linecode=1P_UG_AL_4/0_Sweetbriar_0_416_0_2_2

New Line.l(r:p1ulv7754-udm13785) Units=km Length=0.0138136 bus1=udm13785.1.2 bus2=p1ulv7754.1.2 switch=n enabled=y phases=2 Linecode=1P_UG_AL_1/0_Brenau_0_416_0_2_2

New Line.l(r:p1ulv7771-udm13787) Units=km Length=0.0132462 bus1=udm13787.1.2 bus2=p1ulv7771.1.2 switch=n enabled=y phases=2 Linecode=1P_UG_AL_1/0_Brenau_0_416_0_2_2

New Line.l(r:p1ulv7770-udm13786) Units=km Length=0.0157411 bus1=udm13786.1.2 bus2=p1ulv7770.1.2 switch=n enabled=y phases=2 Linecode=1P_UG_AL_1/0_Brenau_0_416_0_2_2

New Line.l(r:udm13786-udm13787) Units=km Length=0.00675406 bus1=udm13787.1.2 bus2=udm13786.1.2 switch=n enabled=y phases=2 Linecode=1P_UG_AL_1/0_Brenau_0_416_0_2_2

New Line.l(r:udm13785-udm13787) Units=km Length=0.00674581 bus1=udm13785.1.2 bus2=udm13787.1.2 switch=n enabled=y phases=2 Linecode=1P_UG_AL_1/0_Brenau_0_416_0_2_2

New Line.l(r:udm13785-udt3520lv) Units=km Length=0.0135132 bus1=udt3520lv.1.2 bus2=udm13785.1.2 switch=n enabled=y phases=2 Linecode=1P_UG_AL_2/0_Converse_0_416_0_2_2

New Line.l(r:p1ulv7727-udt3521lv) Units=km Length=0.0181017 bus1=udt3521lv.1.2 bus2=p1ulv7727.1.2 switch=n enabled=y phases=2 Linecode=1P_UG_AL_1/0_Brenau_0_416_0_2_2

New Line.l(r:p1ulv7729-udt3521lv) Units=km Length=0.0181966 bus1=udt3521lv.1.2 bus2=p1ulv7729.1.2 switch=n enabled=y phases=2 Linecode=1P_UG_AL_1/0_Brenau_0_416_0_2_2

New Line.l(r:p1ulv7725-udm13788) Units=km Length=0.0193262 bus1=udm13788.1.2 bus2=p1ulv7725.1.2 switch=n enabled=y phases=2 Linecode=1P_UG_AL_1/0_Brenau_0_416_0_2_2

New Line.l(r:p1ulv7726-udm13788) Units=km Length=0.0190819 bus1=udm13788.1.2 bus2=p1ulv7726.1.2 switch=n enabled=y phases=2 Linecode=1P_UG_AL_1/0_Brenau_0_416_0_2_2

New Line.l(r:udm13788-udt3521lv) Units=km Length=0.00961899 bus1=udt3521lv.1.2 bus2=udm13788.1.2 switch=n enabled=y phases=2 Linecode=1P_UG_AL_1/0_Brenau_0_416_0_2_2

New Line.l(r:p1ulv7730-udm13792) Units=km Length=0.013222 bus1=udm13792.1.2 bus2=p1ulv7730.1.2 switch=n enabled=y phases=2 Linecode=1P_UG_AL_1/0_Brenau_0_416_0_2_2

New Line.l(r:p1ulv7731-udm13793) Units=km Length=0.0143696 bus1=udm13793.1.2 bus2=p1ulv7731.1.2 switch=n enabled=y phases=2 Linecode=1P_UG_AL_1/0_Brenau_0_416_0_2_2

New Line.l(r:p1ulv7732-udm13794) Units=km Length=0.0156028 bus1=udm13794.1.2 bus2=p1ulv7732.1.2 switch=n enabled=y phases=2 Linecode=1P_UG_AL_1/0_Brenau_0_416_0_2_2

New Line.l(r:p1ulv7733-udm13794) Units=km Length=0.0160512 bus1=udm13794.1.2 bus2=p1ulv7733.1.2 switch=n enabled=y phases=2 Linecode=1P_UG_AL_1/0_Brenau_0_416_0_2_2

New Line.l(r:p1ulv7734-udm13796) Units=km Length=0.0168813 bus1=udm13796.1.2 bus2=p1ulv7734.1.2 switch=n enabled=y phases=2 Linecode=1P_UG_AL_1/0_Brenau_0_416_0_2_2

New Line.l(r:udm13794-udm13796) Units=km Length=0.008359250000000002 bus1=udm13794.1.2 bus2=udm13796.1.2 switch=n enabled=y phases=2 Linecode=1P_UG_AL_1/0_Brenau_0_416_0_2_2

New Line.l(r:udm13793-udm13794) Units=km Length=0.008359250000000002 bus1=udm13793.1.2 bus2=udm13794.1.2 switch=n enabled=y phases=2 Linecode=1P_UG_AL_1/0_Brenau_0_416_0_2_2

New Line.l(r:udm13792-udm13793) Units=km Length=0.00835419 bus1=udm13792.1.2 bus2=udm13793.1.2 switch=n enabled=y phases=2 Linecode=1P_UG_AL_2/0_Converse_0_416_0_2_2

New Line.l(r:udm13792-udt3521lv) Units=km Length=0.00826768 bus1=udt3521lv.1.2 bus2=udm13792.1.2 switch=n enabled=y phases=2 Linecode=1P_UG_AL_4/0_Sweetbriar_0_416_0_2_2

New Line.l(r:p1ulv7748-udt3522lv) Units=km Length=0.0138398 bus1=udt3522lv.1.2 bus2=p1ulv7748.1.2 switch=n enabled=y phases=2 Linecode=1P_UG_AL_1/0_Brenau_0_416_0_2_2

New Line.l(r:p1ulv7740-udm13799) Units=km Length=0.0108786 bus1=udm13799.1.2 bus2=p1ulv7740.1.2 switch=n enabled=y phases=2 Linecode=1P_UG_AL_1/0_Brenau_0_416_0_2_2

New Line.l(r:p1ulv7747-udm13799) Units=km Length=0.0152191 bus1=udm13799.1.2 bus2=p1ulv7747.1.2 switch=n enabled=y phases=2 Linecode=1P_UG_AL_1/0_Brenau_0_416_0_2_2

New Line.l(r:p1ulv7739-udm13798) Units=km Length=0.0149202 bus1=udm13798.1.2 bus2=p1ulv7739.1.2 switch=n enabled=y phases=2 Linecode=1P_UG_AL_1/0_Brenau_0_416_0_2_2

New Line.l(r:p1ulv7738-udm13797) Units=km Length=0.0156961 bus1=udm13797.1.2 bus2=p1ulv7738.1.2 switch=n enabled=y phases=2 Linecode=1P_UG_AL_1/0_Brenau_0_416_0_2_2

New Line.l(r:udm13797-udm13798) Units=km Length=0.00694295 bus1=udm13798.1.2 bus2=udm13797.1.2 switch=n enabled=y phases=2 Linecode=1P_UG_AL_1/0_Brenau_0_416_0_2_2

New Line.l(r:udm13798-udm13799) Units=km Length=0.00838816 bus1=udm13799.1.2 bus2=udm13798.1.2 switch=n enabled=y phases=2 Linecode=1P_UG_AL_1/0_Brenau_0_416_0_2_2

New Line.l(r:udm13799-udt3522lv) Units=km Length=0.00838816 bus1=udt3522lv.1.2 bus2=udm13799.1.2 switch=n enabled=y phases=2 Linecode=1P_UG_AL_2/0_Converse_0_416_0_2_2

New Line.l(r:p1ulv7750-udm13803) Units=km Length=0.0139215 bus1=udm13803.1.2 bus2=p1ulv7750.1.2 switch=n enabled=y phases=2 Linecode=1P_UG_AL_1/0_Brenau_0_416_0_2_2

New Line.l(r:p1ulv7741-udm13800) Units=km Length=0.014733900000000001 bus1=udm13800.1.2 bus2=p1ulv7741.1.2 switch=n enabled=y phases=2 Linecode=1P_UG_AL_1/0_Brenau_0_416_0_2_2

New Line.l(r:udm13800-udm13803) Units=km Length=0.008213400000000001 bus1=udm13803.1.2 bus2=udm13800.1.2 switch=n enabled=y phases=2 Linecode=1P_UG_AL_1/0_Brenau_0_416_0_2_2

New Line.l(r:udm13803-udt3522lv) Units=km Length=0.0082201 bus1=udt3522lv.1.2 bus2=udm13803.1.2 switch=n enabled=y phases=2 Linecode=1P_UG_AL_4/0_Sweetbriar_0_416_0_2_2

New Line.l(r:p1ulv7756-udt3523lv) Units=km Length=0.014015900000000001 bus1=udt3523lv.1.2 bus2=p1ulv7756.1.2 switch=n enabled=y phases=2 Linecode=1P_UG_AL_1/0_Brenau_0_416_0_2_2

New Line.l(r:p1ulv7758-udt3523lv) Units=km Length=0.0148965 bus1=udt3523lv.1.2 bus2=p1ulv7758.1.2 switch=n enabled=y phases=2 Linecode=1P_UG_AL_1/0_Brenau_0_416_0_2_2

New Line.l(r:p1ulv7755-udm13804) Units=km Length=0.0140773 bus1=udm13804.1.2 bus2=p1ulv7755.1.2 switch=n enabled=y phases=2 Linecode=1P_UG_AL_1/0_Brenau_0_416_0_2_2

New Line.l(r:udm13804-udt3523lv) Units=km Length=0.00674016 bus1=udt3523lv.1.2 bus2=udm13804.1.2 switch=n enabled=y phases=2 Linecode=1P_UG_AL_1/0_Brenau_0_416_0_2_2

New Line.l(r:p1ulv7759-udm13807) Units=km Length=0.0169169 bus1=udm13807.1.2 bus2=p1ulv7759.1.2 switch=n enabled=y phases=2 Linecode=1P_UG_AL_1/0_Brenau_0_416_0_2_2

New Line.l(r:p1ulv7769-udm13807) Units=km Length=0.0161423 bus1=udm13807.1.2 bus2=p1ulv7769.1.2 switch=n enabled=y phases=2 Linecode=1P_UG_AL_1/0_Brenau_0_416_0_2_2

New Line.l(r:udm13807-udt3523lv) Units=km Length=0.00801544 bus1=udt3523lv.1.2 bus2=udm13807.1.2 switch=n enabled=y phases=2 Linecode=1P_UG_AL_1/0_Brenau_0_416_0_2_2

New Line.l(r:p1ulv7762-udt3524lv) Units=km Length=0.0134199 bus1=udt3524lv.1.2 bus2=p1ulv7762.1.2 switch=n enabled=y phases=2 Linecode=1P_UG_AL_1/0_Brenau_0_416_0_2_2

New Line.l(r:p1ulv7763-udt3524lv) Units=km Length=0.0133904 bus1=udt3524lv.1.2 bus2=p1ulv7763.1.2 switch=n enabled=y phases=2 Linecode=1P_UG_AL_1/0_Brenau_0_416_0_2_2

New Line.l(r:p1ulv7765-udt3524lv) Units=km Length=0.0153764 bus1=udt3524lv.1.2 bus2=p1ulv7765.1.2 switch=n enabled=y phases=2 Linecode=1P_UG_AL_1/0_Brenau_0_416_0_2_2

New Line.l(r:p1ulv7767-udt3524lv) Units=km Length=0.01428 bus1=udt3524lv.1.2 bus2=p1ulv7767.1.2 switch=n enabled=y phases=2 Linecode=1P_UG_AL_1/0_Brenau_0_416_0_2_2

New Line.l(r:p1ulv7760-udm13809) Units=km Length=0.0145889 bus1=udm13809.1.2 bus2=p1ulv7760.1.2 switch=n enabled=y phases=2 Linecode=1P_UG_AL_1/0_Brenau_0_416_0_2_2

New Line.l(r:p1ulv7761-udm13809) Units=km Length=0.013748 bus1=udm13809.1.2 bus2=p1ulv7761.1.2 switch=n enabled=y phases=2 Linecode=1P_UG_AL_1/0_Brenau_0_416_0_2_2

New Line.l(r:p1ulv7768-udm13809) Units=km Length=0.00898944 bus1=udm13809.1.2 bus2=p1ulv7768.1.2 switch=n enabled=y phases=2 Linecode=1P_UG_AL_1/0_Brenau_0_416_0_2_2

New Line.l(r:udm13809-udt3524lv) Units=km Length=0.00890014 bus1=udt3524lv.1.2 bus2=udm13809.1.2 switch=n enabled=y phases=2 Linecode=1P_UG_AL_2/0_Converse_0_416_0_2_2

New Line.l(r:p1ulv7766-udm13814) Units=km Length=0.0155719 bus1=udm13814.1.2 bus2=p1ulv7766.1.2 switch=n enabled=y phases=2 Linecode=1P_UG_AL_1/0_Brenau_0_416_0_2_2

New Line.l(r:udm13814-udt3524lv) Units=km Length=0.00669024 bus1=udt3524lv.1.2 bus2=udm13814.1.2 switch=n enabled=y phases=2 Linecode=1P_UG_AL_1/0_Brenau_0_416_0_2_2

New Line.l(r:p1ulv8172-udt3731lv) Units=km Length=0.0178076 bus1=udt3731lv.1.2 bus2=p1ulv8172.1.2 switch=n enabled=y phases=2 Linecode=1P_OH_AL_2/0_Rucina_0_416_0_2_2

New Line.l(r:p1ulv8174-udt3731lv) Units=km Length=0.0141322 bus1=udt3731lv.1.2 bus2=p1ulv8174.1.2 switch=n enabled=y phases=2 Linecode=1P_OH_AL_2/0_Rucina_0_416_0_2_2

New Line.l(r:p1ulv34175-udm14493) Units=km Length=0.0375095 bus1=udm14493.1.2 bus2=p1ulv34175.1.2 switch=n enabled=y phases=2 Linecode=1P_OH_AL_4/0_Zuzara_0_416_0_2_2
