New Load.load_p1ulv6201 conn=wye bus1=p1ulv6201.1.2 kV=0.2080002494301389 Vminpu=0.8 Vmaxpu=1.2 model=1 kW=3.09003 kvar=0.6306836979747686 Phases=2

New Load.load_p1ulv6202 conn=wye bus1=p1ulv6202.1.2 kV=0.2080002494301389 Vminpu=0.8 Vmaxpu=1.2 model=1 kW=10.78 kvar=0.6694632252334703 Phases=2

New Load.load_p1ulv6203 conn=wye bus1=p1ulv6203.1.2 kV=0.2080002494301389 Vminpu=0.8 Vmaxpu=1.2 model=1 kW=3.00003 kvar=0.6107500293370508 Phases=2

New Load.load_p1ulv6204 conn=wye bus1=p1ulv6204.1.2 kV=0.2080002494301389 Vminpu=0.8 Vmaxpu=1.2 model=1 kW=9.91 kvar=0.489375433301163 Phases=2

New Load.load_p1ulv6205 conn=wye bus1=p1ulv6205.1.2 kV=0.2080002494301389 Vminpu=0.8 Vmaxpu=1.2 model=1 kW=10.06 kvar=0.5198362629828699 Phases=2

New Load.load_p1ulv6206 conn=wye bus1=p1ulv6206.1.2 kV=0.2080002494301389 Vminpu=0.8 Vmaxpu=1.2 model=1 kW=2.85003 kvar=0.5802128332421591 Phases=2

New Load.load_p1ulv6207 conn=wye bus1=p1ulv6207.1.2 kV=0.2080002494301389 Vminpu=0.8 Vmaxpu=1.2 model=1 kW=3.39003 kvar=0.6901467391837689 Phases=2

New Load.load_p1ulv6208 conn=wye bus1=p1ulv6208.1.2 kV=0.2080002494301389 Vminpu=0.8 Vmaxpu=1.2 model=1 kW=3.23003 kvar=0.6592580864811803 Phases=2

New Load.load_p1ulv6209 conn=wye bus1=p1ulv6209.1.2 kV=0.2080002494301389 Vminpu=0.8 Vmaxpu=1.2 model=1 kW=10.42 kvar=0.5898746577868357 Phases=2

New Load.load_p1ulv6210 conn=wye bus1=p1ulv6210.1.2 kV=0.2080002494301389 Vminpu=0.8 Vmaxpu=1.2 model=1 kW=9.93 kvar=0.48960906739811333 Phases=2

New Load.load_p1ulv6211 conn=wye bus1=p1ulv6210.1.2 kV=0.2080002494301389 Vminpu=0.8 Vmaxpu=1.2 model=1 kW=10.15 kvar=0.5394965717823037 Phases=2

New Load.load_p1ulv6212 conn=wye bus1=p1ulv6212.1.2 kV=0.2080002494301389 Vminpu=0.8 Vmaxpu=1.2 model=1 kW=17.98 kvar=0.6004270372747549 Phases=2

New Load.load_p1ulv6213 conn=wye bus1=p1ulv6212.1.2 kV=0.2080002494301389 Vminpu=0.8 Vmaxpu=1.2 model=1 kW=18.62 kvar=0.7293785270672118 Phases=2

New Load.load_p1ulv6214 conn=wye bus1=p1ulv6214.1.2 kV=0.2080002494301389 Vminpu=0.8 Vmaxpu=1.2 model=1 kW=25.4 kvar=0.5903918986071232 Phases=2

New Load.load_p1ulv6215 conn=wye bus1=p1ulv6215.1.2 kV=0.2080002494301389 Vminpu=0.8 Vmaxpu=1.2 model=1 kW=10.32 kvar=0.5696736784206362 Phases=2

New Load.load_p1ulv6216 conn=wye bus1=p1ulv6216.1.2 kV=0.2080002494301389 Vminpu=0.8 Vmaxpu=1.2 model=1 kW=2.04002 kvar=0.41955091099355474 Phases=2

New Load.load_p1ulv6217 conn=wye bus1=p1ulv6217.1.2 kV=0.2080002494301389 Vminpu=0.8 Vmaxpu=1.2 model=1 kW=1.89002 kvar=0.37981104658211823 Phases=2

New Load.load_p1ulv6218 conn=wye bus1=p1ulv6218.1.2 kV=0.2080002494301389 Vminpu=0.8 Vmaxpu=1.2 model=1 kW=2.57003 kvar=0.520520578499115 Phases=2

New Load.load_p1ulv6219 conn=wye bus1=p1ulv6219.1.2 kV=0.2080002494301389 Vminpu=0.8 Vmaxpu=1.2 model=1 kW=2.96003 kvar=0.5995091605836256 Phases=2

New Load.load_p1ulv6220 conn=wye bus1=p1ulv6220.1.2 kV=0.2080002494301389 Vminpu=0.8 Vmaxpu=1.2 model=1 kW=18.69 kvar=0.7492945800859013 Phases=2

New Load.load_p1ulv6221 conn=wye bus1=p1ulv6220.1.2 kV=0.2080002494301389 Vminpu=0.8 Vmaxpu=1.2 model=1 kW=17.92 kvar=0.5898746577868357 Phases=2

New Load.load_p1ulv6222 conn=wye bus1=p1ulv6222.1.2 kV=0.2080002494301389 Vminpu=0.8 Vmaxpu=1.2 model=1 kW=10.34 kvar=0.5796580042133189 Phases=2

New Load.load_p1ulv6223 conn=wye bus1=p1ulv6223.1.2 kV=0.2080002494301389 Vminpu=0.8 Vmaxpu=1.2 model=1 kW=17.13 kvar=0.4302849006959229 Phases=2

New Load.load_p1ulv6224 conn=wye bus1=p1ulv6223.1.2 kV=0.2080002494301389 Vminpu=0.8 Vmaxpu=1.2 model=1 kW=17.99 kvar=0.6102734204701886 Phases=2

New Load.load_p1ulv6225 conn=wye bus1=p1ulv6225.1.2 kV=0.2080002494301389 Vminpu=0.8 Vmaxpu=1.2 model=1 kW=10.85 kvar=0.6802526048837334 Phases=2

New Load.load_p1ulv6226 conn=wye bus1=p1ulv6226.1.2 kV=0.2080002494301389 Vminpu=0.8 Vmaxpu=1.2 model=1 kW=3.08003 kvar=0.6302452033833459 Phases=2

New Load.load_p1ulv6227 conn=wye bus1=p1ulv6227.1.2 kV=0.2080002494301389 Vminpu=0.8 Vmaxpu=1.2 model=1 kW=2.30002 kvar=0.46944046466083733 Phases=2

New Load.load_p1ulv6228 conn=wye bus1=p1ulv6228.1.2 kV=0.2080002494301389 Vminpu=0.8 Vmaxpu=1.2 model=1 kW=9.24 kvar=0.3496676317043298 Phases=2

New Load.load_p1ulv6229 conn=wye bus1=p1ulv6228.1.2 kV=0.2080002494301389 Vminpu=0.8 Vmaxpu=1.2 model=1 kW=10.45 kvar=0.6005709639720869 Phases=2

New Load.load_p1ulv6230 conn=wye bus1=p1ulv6230.1.2 kV=0.2080002494301389 Vminpu=0.8 Vmaxpu=1.2 model=1 kW=10.5 kvar=0.6107500293370508 Phases=2

New Load.load_p1ulv6231 conn=wye bus1=p1ulv6231.1.2 kV=0.2080002494301389 Vminpu=0.8 Vmaxpu=1.2 model=1 kW=10.24 kvar=0.5606733585797765 Phases=2

New Load.load_p1ulv6232 conn=wye bus1=p1ulv6231.1.2 kV=0.2080002494301389 Vminpu=0.8 Vmaxpu=1.2 model=1 kW=9.35 kvar=0.38047547394451825 Phases=2

New Load.load_p1ulv6233 conn=wye bus1=p1ulv6233.1.2 kV=0.2080002494301389 Vminpu=0.8 Vmaxpu=1.2 model=1 kW=10.67 kvar=0.6403771062023346 Phases=2

New Load.load_p1ulv6235 conn=wye bus1=p1ulv6235.1.2 kV=0.2080002494301389 Vminpu=0.8 Vmaxpu=1.2 model=1 kW=14.6801 kvar=1.4617280371003216 Phases=2

New Load.load_p1ulv6236 conn=wye bus1=p1ulv6236.1.2 kV=0.2080002494301389 Vminpu=0.8 Vmaxpu=1.2 model=1 kW=22.2801 kvar=1.4782812635217957 Phases=2

New Load.load_p1ulv6237 conn=wye bus1=p1ulv6237.1.2.3 kV=0.48 Vminpu=0.8 Vmaxpu=1.2 model=1 kW=21.7802 kvar=4.42265824034074 Phases=3

New Load.load_p1ulv6238 conn=wye bus1=p1ulv6238.1.2 kV=0.2080002494301389 Vminpu=0.8 Vmaxpu=1.2 model=1 kW=7.93008 kvar=1.610271423520505 Phases=2

New Load.load_p1ulv6239 conn=wye bus1=p1ulv6239.1.2 kV=0.2080002494301389 Vminpu=0.8 Vmaxpu=1.2 model=1 kW=7.94008 kvar=1.608142720096362 Phases=2

New Load.load_p1ulv6240 conn=wye bus1=p1ulv6240.1.2 kV=0.2080002494301389 Vminpu=0.8 Vmaxpu=1.2 model=1 kW=15.3901 kvar=1.5980159788034758 Phases=2

New Load.load_p1ulv6241 conn=wye bus1=p1ulv6241.1.2 kV=0.2080002494301389 Vminpu=0.8 Vmaxpu=1.2 model=1 kW=21.6801 kvar=1.359937383450683 Phases=2

New Load.load_p1ulv6242 conn=wye bus1=p1ulv6242.1.2 kV=0.2080002494301389 Vminpu=0.8 Vmaxpu=1.2 model=1 kW=13.8301 kvar=1.2886818900828627 Phases=2

New Load.load_p1ulv6243 conn=wye bus1=p1ulv6243.1.2 kV=0.2080002494301389 Vminpu=0.8 Vmaxpu=1.2 model=1 kW=13.5101 kvar=1.2203947339300039 Phases=2

New Load.load_p1ulv6244 conn=wye bus1=p1ulv6244.1.2 kV=0.2080002494301389 Vminpu=0.8 Vmaxpu=1.2 model=1 kW=15.6101 kvar=1.6510606887017225 Phases=2

New Load.load_p1ulv6245 conn=wye bus1=p1ulv6245.1.2 kV=0.2080002494301389 Vminpu=0.8 Vmaxpu=1.2 model=1 kW=6.16006 kvar=1.2508535330251045 Phases=2

New Load.load_p1ulv6246 conn=wye bus1=p1ulv6246.1.2 kV=0.2080002494301389 Vminpu=0.8 Vmaxpu=1.2 model=1 kW=19.1702 kvar=3.8926751360859893 Phases=2

New Load.load_p1ulv6247 conn=wye bus1=p1ulv6247.1.2 kV=0.2080002494301389 Vminpu=0.8 Vmaxpu=1.2 model=1 kW=15.0601 kvar=1.5390909696871202 Phases=2

New Load.load_p1ulv6248 conn=wye bus1=p1ulv6248.1.2 kV=0.2080002494301389 Vminpu=0.8 Vmaxpu=1.2 model=1 kW=21.6901 kvar=1.358476653747733 Phases=2

New Load.load_p1ulv6249 conn=wye bus1=p1ulv6249.1.2 kV=0.2080002494301389 Vminpu=0.8 Vmaxpu=1.2 model=1 kW=14.3101 kvar=1.37927634152888 Phases=2

New Load.load_p1ulv6631 conn=wye bus1=p1ulv6631.1.2 kV=0.2080002494301389 Vminpu=0.8 Vmaxpu=1.2 model=1 kW=12.7201 kvar=1.059976361442534 Phases=2

New Load.load_p1ulv6632 conn=wye bus1=p1ulv6632.1.2 kV=0.2080002494301389 Vminpu=0.8 Vmaxpu=1.2 model=1 kW=13.1301 kvar=1.1402832216685126 Phases=2

New Load.load_p1ulv6633 conn=wye bus1=p1ulv6633.1.2 kV=0.2080002494301389 Vminpu=0.8 Vmaxpu=1.2 model=1 kW=13.2001 kvar=1.1604256664843182 Phases=2

New Load.load_p1ulv7389 conn=wye bus1=p1ulv7389.1.2 kV=0.2080002494301389 Vminpu=0.8 Vmaxpu=1.2 model=1 kW=7.34007 kvar=1.4904647831598359 Phases=2

New Load.load_p1ulv7391 conn=wye bus1=p1ulv7391.1.2.3 kV=0.48 Vminpu=0.8 Vmaxpu=1.2 model=1 kW=24.4502 kvar=4.964824864233531 Phases=3

New Load.load_p1umv10 conn=wye bus1=p1umv10.1.2.3 kV=12.47 Vminpu=0.8 Vmaxpu=1.2 model=1 kW=841.7279999999998 kvar=170.9201602981391 Phases=3

New Load.load_p1ulv7393 conn=wye bus1=p1ulv7393.1.2.3 kV=0.48 Vminpu=0.8 Vmaxpu=1.2 model=1 kW=189.522 kvar=38.48408348067776 Phases=3

New Load.load_p1ulv7394 conn=wye bus1=p1ulv7394.1.2 kV=0.2080002494301389 Vminpu=0.8 Vmaxpu=1.2 model=1 kW=10.0201 kvar=2.029419208576935 Phases=2

New Load.load_p1ulv7395 conn=wye bus1=p1ulv7395.1.2.3 kV=0.48 Vminpu=0.8 Vmaxpu=1.2 model=1 kW=148.991 kvar=30.253912906520934 Phases=3

New Load.load_p1ulv7716 conn=wye bus1=p1ulv7716.1.2 kV=0.2080002494301389 Vminpu=0.8 Vmaxpu=1.2 model=1 kW=16.1501 kvar=1.7609966304564053 Phases=2

New Load.load_p1ulv7717 conn=wye bus1=p1ulv7717.1.2 kV=0.2080002494301389 Vminpu=0.8 Vmaxpu=1.2 model=1 kW=10.39 kvar=0.5898631429656088 Phases=2

New Load.load_p1ulv7718 conn=wye bus1=p1ulv7718.1.2 kV=0.2080002494301389 Vminpu=0.8 Vmaxpu=1.2 model=1 kW=9.74 kvar=0.45014568129695803 Phases=2

New Load.load_p1ulv7719 conn=wye bus1=p1ulv7718.1.2 kV=0.2080002494301389 Vminpu=0.8 Vmaxpu=1.2 model=1 kW=9.36 kvar=0.37963524364068607 Phases=2

New Load.load_p1ulv7720 conn=wye bus1=p1ulv7720.1.2 kV=0.2080002494301389 Vminpu=0.8 Vmaxpu=1.2 model=1 kW=2.91003 kvar=0.5893824192907394 Phases=2

New Load.load_p1ulv7721 conn=wye bus1=p1ulv7721.1.2 kV=0.2080002494301389 Vminpu=0.8 Vmaxpu=1.2 model=1 kW=10.41 kvar=0.5893824192907394 Phases=2

New Load.load_p1ulv7722 conn=wye bus1=p1ulv7722.1.2 kV=0.2080002494301389 Vminpu=0.8 Vmaxpu=1.2 model=1 kW=2.79003 kvar=0.569452865461029 Phases=2

New Load.load_p1ulv7723 conn=wye bus1=p1ulv7723.1.2 kV=0.2080002494301389 Vminpu=0.8 Vmaxpu=1.2 model=1 kW=10.28 kvar=0.5601303263507202 Phases=2

New Load.load_p1ulv7724 conn=wye bus1=p1ulv7724.1.2 kV=0.2080002494301389 Vminpu=0.8 Vmaxpu=1.2 model=1 kW=10.47 kvar=0.5999751474699353 Phases=2

New Load.load_p1ulv7725 conn=wye bus1=p1ulv7725.1.2 kV=0.2080002494301389 Vminpu=0.8 Vmaxpu=1.2 model=1 kW=2.60003 kvar=0.5306733382023273 Phases=2

New Load.load_p1ulv7726 conn=wye bus1=p1ulv7726.1.2 kV=0.2080002494301389 Vminpu=0.8 Vmaxpu=1.2 model=1 kW=9.34 kvar=0.36976324162285545 Phases=2

New Load.load_p1ulv7727 conn=wye bus1=p1ulv7727.1.2 kV=0.2080002494301389 Vminpu=0.8 Vmaxpu=1.2 model=1 kW=1.65002 kvar=0.3401962341539353 Phases=2

New Load.load_p1ulv7728 conn=wye bus1=p1ulv7727.1.2 kV=0.2080002494301389 Vminpu=0.8 Vmaxpu=1.2 model=1 kW=2.04002 kvar=0.4099544614599067 Phases=2

New Load.load_p1ulv7729 conn=wye bus1=p1ulv7729.1.2 kV=0.2080002494301389 Vminpu=0.8 Vmaxpu=1.2 model=1 kW=2.87003 kvar=0.5797741681037358 Phases=2

New Load.load_p1ulv7730 conn=wye bus1=p1ulv7730.1.2 kV=0.2080002494301389 Vminpu=0.8 Vmaxpu=1.2 model=1 kW=2.7600300000000004 kvar=0.5604479951096709 Phases=2

New Load.load_p1ulv7731 conn=wye bus1=p1ulv7731.1.2 kV=0.2080002494301389 Vminpu=0.8 Vmaxpu=1.2 model=1 kW=2.38002 kvar=0.47953488966710467 Phases=2

New Load.load_p1ulv7732 conn=wye bus1=p1ulv7732.1.2 kV=0.2080002494301389 Vminpu=0.8 Vmaxpu=1.2 model=1 kW=9.22 kvar=0.3501639201809029 Phases=2

New Load.load_p1ulv7733 conn=wye bus1=p1ulv7733.1.2 kV=0.2080002494301389 Vminpu=0.8 Vmaxpu=1.2 model=1 kW=2.20002 kvar=0.45017485295514287 Phases=2

New Load.load_p1ulv7734 conn=wye bus1=p1ulv7734.1.2 kV=0.2080002494301389 Vminpu=0.8 Vmaxpu=1.2 model=1 kW=17.78 kvar=0.5601303263507202 Phases=2

New Load.load_p1ulv7735 conn=wye bus1=p1ulv7735.1.2 kV=0.2080002494301389 Vminpu=0.8 Vmaxpu=1.2 model=1 kW=10.36 kvar=0.5807538611730713 Phases=2

New Load.load_p1ulv7736 conn=wye bus1=p1ulv7736.1.2 kV=0.2080002494301389 Vminpu=0.8 Vmaxpu=1.2 model=1 kW=9.65 kvar=0.43994369930755917 Phases=2

New Load.load_p1ulv7737 conn=wye bus1=p1ulv7737.1.2 kV=0.2080002494301389 Vminpu=0.8 Vmaxpu=1.2 model=1 kW=1.52002 kvar=0.31024030012511455 Phases=2

New Load.load_p1ulv7738 conn=wye bus1=p1ulv7738.1.2 kV=0.2080002494301389 Vminpu=0.8 Vmaxpu=1.2 model=1 kW=1.7300200000000001 kvar=0.350389299430372 Phases=2

New Load.load_p1ulv7739 conn=wye bus1=p1ulv7739.1.2 kV=0.2080002494301389 Vminpu=0.8 Vmaxpu=1.2 model=1 kW=9.88 kvar=0.47953488966710467 Phases=2

New Load.load_p1ulv7740 conn=wye bus1=p1ulv7740.1.2 kV=0.2080002494301389 Vminpu=0.8 Vmaxpu=1.2 model=1 kW=2.8200300000000005 kvar=0.5696736784206362 Phases=2

New Load.load_p1ulv7741 conn=wye bus1=p1ulv7741.1.2 kV=0.2080002494301389 Vminpu=0.8 Vmaxpu=1.2 model=1 kW=17.83 kvar=0.5702045040817287 Phases=2

New Load.load_p1ulv7742 conn=wye bus1=p1ulv7741.1.2 kV=0.2080002494301389 Vminpu=0.8 Vmaxpu=1.2 model=1 kW=17.81 kvar=0.570600928141371 Phases=2

New Load.load_p1ulv7743 conn=wye bus1=p1ulv7743.1.2 kV=0.2080002494301389 Vminpu=0.8 Vmaxpu=1.2 model=1 kW=1.70002 kvar=0.3496264446952789 Phases=2

New Load.load_p1ulv7744 conn=wye bus1=p1ulv7744.1.2 kV=0.2080002494301389 Vminpu=0.8 Vmaxpu=1.2 model=1 kW=17.29 kvar=0.46019348625622075 Phases=2

New Load.load_p1ulv7745 conn=wye bus1=p1ulv7744.1.2 kV=0.2080002494301389 Vminpu=0.8 Vmaxpu=1.2 model=1 kW=17.51 kvar=0.5096833299511698 Phases=2

New Load.load_p1ulv7746 conn=wye bus1=p1ulv7746.1.2 kV=0.2080002494301389 Vminpu=0.8 Vmaxpu=1.2 model=1 kW=10.5 kvar=0.6107500293370508 Phases=2

New Load.load_p1ulv7747 conn=wye bus1=p1ulv7747.1.2 kV=0.2080002494301389 Vminpu=0.8 Vmaxpu=1.2 model=1 kW=18.23 kvar=0.6592580864811803 Phases=2

New Load.load_p1ulv7748 conn=wye bus1=p1ulv7748.1.2 kV=0.2080002494301389 Vminpu=0.8 Vmaxpu=1.2 model=1 kW=17.77 kvar=0.5595731887375364 Phases=2

New Load.load_p1ulv7749 conn=wye bus1=p1ulv7748.1.2 kV=0.2080002494301389 Vminpu=0.8 Vmaxpu=1.2 model=1 kW=17.2 kvar=0.45017485295514287 Phases=2

New Load.load_p1ulv7750 conn=wye bus1=p1ulv7750.1.2 kV=0.2080002494301389 Vminpu=0.8 Vmaxpu=1.2 model=1 kW=9.43 kvar=0.38988294196352385 Phases=2

New Load.load_p1ulv7751 conn=wye bus1=p1ulv7750.1.2 kV=0.2080002494301389 Vminpu=0.8 Vmaxpu=1.2 model=1 kW=10.66 kvar=0.6400161257551694 Phases=2

New Load.load_p1ulv7752 conn=wye bus1=p1ulv7752.1.2 kV=0.2080002494301389 Vminpu=0.8 Vmaxpu=1.2 model=1 kW=9.18 kvar=0.34026255813748596 Phases=2

New Load.load_p1ulv7753 conn=wye bus1=p1ulv7723.1.2 kV=0.2080002494301389 Vminpu=0.8 Vmaxpu=1.2 model=1 kW=9.15 kvar=0.32983487350023794 Phases=2

New Load.load_p1ulv7754 conn=wye bus1=p1ulv7754.1.2 kV=0.2080002494301389 Vminpu=0.8 Vmaxpu=1.2 model=1 kW=3.08003 kvar=0.6302452033833459 Phases=2

New Load.load_p1ulv7755 conn=wye bus1=p1ulv7755.1.2 kV=0.2080002494301389 Vminpu=0.8 Vmaxpu=1.2 model=1 kW=10.14 kvar=0.5402110512846091 Phases=2

New Load.load_p1ulv7756 conn=wye bus1=p1ulv7756.1.2 kV=0.2080002494301389 Vminpu=0.8 Vmaxpu=1.2 model=1 kW=1.93002 kvar=0.38988294196352385 Phases=2

New Load.load_p1ulv7757 conn=wye bus1=p1ulv7756.1.2 kV=0.2080002494301389 Vminpu=0.8 Vmaxpu=1.2 model=1 kW=1.79002 kvar=0.35971543666359257 Phases=2

New Load.load_p1ulv7758 conn=wye bus1=p1ulv7758.1.2 kV=0.2080002494301389 Vminpu=0.8 Vmaxpu=1.2 model=1 kW=10.11 kvar=0.5299891960145702 Phases=2

New Load.load_p1ulv7759 conn=wye bus1=p1ulv7759.1.2 kV=0.2080002494301389 Vminpu=0.8 Vmaxpu=1.2 model=1 kW=3.11003 kvar=0.6298893844622836 Phases=2

New Load.load_p1ulv7760 conn=wye bus1=p1ulv7760.1.2 kV=0.2080002494301389 Vminpu=0.8 Vmaxpu=1.2 model=1 kW=10.54 kvar=0.6204785592224786 Phases=2

New Load.load_p1ulv7761 conn=wye bus1=p1ulv7761.1.2 kV=0.2080002494301389 Vminpu=0.8 Vmaxpu=1.2 model=1 kW=10.2 kvar=0.5496756371472675 Phases=2

New Load.load_p1ulv7762 conn=wye bus1=p1ulv7762.1.2 kV=0.2080002494301389 Vminpu=0.8 Vmaxpu=1.2 model=1 kW=2.26002 kvar=0.4600978261225126 Phases=2

New Load.load_p1ulv7763 conn=wye bus1=p1ulv7763.1.2 kV=0.2080002494301389 Vminpu=0.8 Vmaxpu=1.2 model=1 kW=9.45 kvar=0.40003141231071515 Phases=2

New Load.load_p1ulv7764 conn=wye bus1=p1ulv7763.1.2 kV=0.2080002494301389 Vminpu=0.8 Vmaxpu=1.2 model=1 kW=10.04 kvar=0.5197487439894416 Phases=2

New Load.load_p1ulv7765 conn=wye bus1=p1ulv7765.1.2 kV=0.2080002494301389 Vminpu=0.8 Vmaxpu=1.2 model=1 kW=10.83 kvar=0.6796683639857601 Phases=2

New Load.load_p1ulv7766 conn=wye bus1=p1ulv7766.1.2 kV=0.2080002494301389 Vminpu=0.8 Vmaxpu=1.2 model=1 kW=1.75002 kvar=0.3599094544450253 Phases=2

New Load.load_p1ulv7767 conn=wye bus1=p1ulv7767.1.2 kV=0.2080002494301389 Vminpu=0.8 Vmaxpu=1.2 model=1 kW=10.23 kvar=0.5500561486197115 Phases=2

New Load.load_p1ulv7768 conn=wye bus1=p1ulv7768.1.2 kV=0.2080002494301389 Vminpu=0.8 Vmaxpu=1.2 model=1 kW=3.0700300000000005 kvar=0.620176126836135 Phases=2

New Load.load_p1ulv7769 conn=wye bus1=p1ulv7769.1.2 kV=0.2080002494301389 Vminpu=0.8 Vmaxpu=1.2 model=1 kW=17.25 kvar=0.46040600660272657 Phases=2

New Load.load_p1ulv7770 conn=wye bus1=p1ulv7770.1.2 kV=0.2080002494301389 Vminpu=0.8 Vmaxpu=1.2 model=1 kW=2.84003 kvar=0.5796580042133189 Phases=2

New Load.load_p1ulv7771 conn=wye bus1=p1ulv7771.1.2 kV=0.2080002494301389 Vminpu=0.8 Vmaxpu=1.2 model=1 kW=10.41 kvar=0.5893824192907394 Phases=2

New Load.load_p1ulv7772 conn=wye bus1=p1ulv7772.1.2 kV=0.2080002494301389 Vminpu=0.8 Vmaxpu=1.2 model=1 kW=10.56 kvar=0.6197626431693976 Phases=2

New Load.load_p1ulv7773 conn=wye bus1=p1ulv7773.1.2 kV=0.2080002494301389 Vminpu=0.8 Vmaxpu=1.2 model=1 kW=10.25 kvar=0.5598547025122315 Phases=2

New Load.load_p1ulv7774 conn=wye bus1=p1ulv7774.1.2 kV=0.2080002494301389 Vminpu=0.8 Vmaxpu=1.2 model=1 kW=2.11002 kvar=0.42956063002762096 Phases=2

New Load.load_p1ulv7775 conn=wye bus1=p1ulv7775.1.2 kV=0.2080002494301389 Vminpu=0.8 Vmaxpu=1.2 model=1 kW=2.28002 kvar=0.46058636974522216 Phases=2

New Load.load_p1ulv7776 conn=wye bus1=p1ulv7776.1.2 kV=0.2080002494301389 Vminpu=0.8 Vmaxpu=1.2 model=1 kW=10.27 kvar=0.5595731887375364 Phases=2

New Load.load_p1ulv8172 conn=wye bus1=p1ulv8172.1.2 kV=0.2080002494301389 Vminpu=0.8 Vmaxpu=1.2 model=1 kW=5.84006 kvar=1.1889270495062174 Phases=2

New Load.load_p1ulv8173 conn=wye bus1=p1ulv8172.1.2 kV=0.2080002494301389 Vminpu=0.8 Vmaxpu=1.2 model=1 kW=6.140060000000001 kvar=1.2500014416960006 Phases=2

New Load.load_p1ulv8174 conn=wye bus1=p1ulv8174.1.2 kV=0.2080002494301389 Vminpu=0.8 Vmaxpu=1.2 model=1 kW=12.8101 kvar=1.0810269208245273 Phases=2

New Load.load_p1ulv8175 conn=wye bus1=p1ulv8175.1.2 kV=0.2080002494301389 Vminpu=0.8 Vmaxpu=1.2 model=1 kW=5.50006 kvar=1.119709405024463 Phases=2

New Load.load_p1ulv8176 conn=wye bus1=p1ulv8175.1.2 kV=0.2080002494301389 Vminpu=0.8 Vmaxpu=1.2 model=1 kW=5.32005 kvar=1.0802822275059345 Phases=2

New Load.load_p1ulv8177 conn=wye bus1=p1ulv8177.1.2 kV=0.2080002494301389 Vminpu=0.8 Vmaxpu=1.2 model=1 kW=20.3101 kvar=1.0810269208245273 Phases=2

New Load.load_p1ulv8178 conn=wye bus1=p1ulv8178.1.2 kV=0.2080002494301389 Vminpu=0.8 Vmaxpu=1.2 model=1 kW=12.83 kvar=1.0795207485629381 Phases=2

New Load.load_p1ulv8179 conn=wye bus1=p1ulv8179.1.2 kV=0.2080002494301389 Vminpu=0.8 Vmaxpu=1.2 model=1 kW=5.32005 kvar=1.0802822275059345 Phases=2

New Load.load_p1ulv8180 conn=wye bus1=p1ulv8180.1.2 kV=0.2080002494301389 Vminpu=0.8 Vmaxpu=1.2 model=1 kW=12.8601 kvar=1.091205986189491 Phases=2

New Load.load_p1ulv8181 conn=wye bus1=p1ulv8181.1.2 kV=0.2080002494301389 Vminpu=0.8 Vmaxpu=1.2 model=1 kW=12.7001 kvar=1.061344635376904 Phases=2

New Load.load_p1ulv8182 conn=wye bus1=p1ulv8182.1.2 kV=0.2080002494301389 Vminpu=0.8 Vmaxpu=1.2 model=1 kW=5.12005 kvar=1.0396704953791336 Phases=2

New Load.load_p1ulv8183 conn=wye bus1=p1ulv8183.1.2 kV=0.2080002494301389 Vminpu=0.8 Vmaxpu=1.2 model=1 kW=20.4601 kvar=1.1087104399946952 Phases=2

New Load.load_p1ulv8184 conn=wye bus1=p1ulv8184.1.2 kV=0.2080002494301389 Vminpu=0.8 Vmaxpu=1.2 model=1 kW=12.6501 kvar=1.0511394966246144 Phases=2

New Load.load_p1ulv8185 conn=wye bus1=p1ulv8185.1.2 kV=0.2080002494301389 Vminpu=0.8 Vmaxpu=1.2 model=1 kW=12.7701 kvar=1.0701292944742342 Phases=2

New Load.load_p1ulv8186 conn=wye bus1=p1ulv8186.1.2 kV=0.2080002494301389 Vminpu=0.8 Vmaxpu=1.2 model=1 kW=12.9701 kvar=1.110741026601035 Phases=2

New Load.load_p1ulv8187 conn=wye bus1=p1ulv8187.1.2 kV=0.2080002494301389 Vminpu=0.8 Vmaxpu=1.2 model=1 kW=12.67 kvar=1.0498234284108339 Phases=2

New Load.load_p1ulv8188 conn=wye bus1=p1ulv8188.1.2 kV=0.2080002494301389 Vminpu=0.8 Vmaxpu=1.2 model=1 kW=5.12005 kvar=1.0396704953791336 Phases=2

New Load.load_p1ulv8189 conn=wye bus1=p1ulv8189.1.2 kV=0.2080002494301389 Vminpu=0.8 Vmaxpu=1.2 model=1 kW=12.6501 kvar=1.0511394966246144 Phases=2

New Load.load_p1ulv8190 conn=wye bus1=p1ulv8190.1.2 kV=0.2080002494301389 Vminpu=0.8 Vmaxpu=1.2 model=1 kW=12.6301 kvar=1.0390137833913942 Phases=2

New Load.load_p1ulv8191 conn=wye bus1=p1ulv8191.1.2 kV=0.2080002494301389 Vminpu=0.8 Vmaxpu=1.2 model=1 kW=5.33005 kvar=1.0795207485629381 Phases=2

New Load.load_p1ulv8192 conn=wye bus1=p1ulv8192.1.2 kV=0.2080002494301389 Vminpu=0.8 Vmaxpu=1.2 model=1 kW=5.61006 kvar=1.1391712696764018 Phases=2

New Load.load_p1ulv8193 conn=wye bus1=p1ulv8193.1.2 kV=0.2080002494301389 Vminpu=0.8 Vmaxpu=1.2 model=1 kW=20.7701 kvar=1.1686380972885935 Phases=2

New Load.load_p1ulv8194 conn=wye bus1=p1ulv8194.1.2 kV=0.2080002494301389 Vminpu=0.8 Vmaxpu=1.2 model=1 kW=5.31005 kvar=1.0810269208245273 Phases=2

New Load.load_p1ulv8195 conn=wye bus1=p1ulv8194.1.2 kV=0.2080002494301389 Vminpu=0.8 Vmaxpu=1.2 model=1 kW=5.66006 kvar=1.149324202708102 Phases=2

New Load.load_p1ulv8196 conn=wye bus1=p1ulv8196.1.2 kV=0.2080002494301389 Vminpu=0.8 Vmaxpu=1.2 model=1 kW=5.10005 kvar=1.0302600481658584 Phases=2

New Load.load_p1ulv8197 conn=wye bus1=p1ulv8197.1.2 kV=0.2080002494301389 Vminpu=0.8 Vmaxpu=1.2 model=1 kW=5.91006 kvar=1.200088867866603 Phases=2

New Load.load_p1ulv8198 conn=wye bus1=p1ulv8198.1.2 kV=0.2080002494301389 Vminpu=0.8 Vmaxpu=1.2 model=1 kW=12.76 kvar=1.070847855459563 Phases=2

New Load.load_p1ulv8199 conn=wye bus1=p1ulv8199.1.2 kV=0.2080002494301389 Vminpu=0.8 Vmaxpu=1.2 model=1 kW=5.26005 kvar=1.070847855459563 Phases=2

New Load.load_p1ulv8200 conn=wye bus1=p1ulv8200.1.2 kV=0.2080002494301389 Vminpu=0.8 Vmaxpu=1.2 model=1 kW=5.890060000000001 kvar=1.199106114871181 Phases=2

New Load.load_p1ulv8201 conn=wye bus1=p1ulv8201.1.2 kV=0.2080002494301389 Vminpu=0.8 Vmaxpu=1.2 model=1 kW=20.8801 kvar=1.1909169281329426 Phases=2

New Load.load_p1ulv8202 conn=wye bus1=p1ulv8202.1.2 kV=0.2080002494301389 Vminpu=0.8 Vmaxpu=1.2 model=1 kW=5.18005 kvar=1.0491405246842802 Phases=2

New Load.load_p1ulv8203 conn=wye bus1=p1ulv8203.1.2 kV=0.2080002494301389 Vminpu=0.8 Vmaxpu=1.2 model=1 kW=12.5901 kvar=1.0309123903570856 Phases=2

New Load.load_p1ulv8204 conn=wye bus1=p1ulv8204.1.2 kV=0.2080002494301389 Vminpu=0.8 Vmaxpu=1.2 model=1 kW=12.67 kvar=1.0498234284108339 Phases=2

New Load.load_p1ulv8691 conn=wye bus1=p1ulv8691.1.2 kV=0.2080002494301389 Vminpu=0.8 Vmaxpu=1.2 model=1 kW=1.38001 kvar=0.28022298226153225 Phases=2

New Load.load_p1ulv8693 conn=wye bus1=p1ulv8693.1.2 kV=0.2080002494301389 Vminpu=0.8 Vmaxpu=1.2 model=1 kW=1.38001 kvar=0.28022298226153225 Phases=2

New Load.load_p1ulv8695 conn=wye bus1=p1ulv8695.1.2 kV=0.2080002494301389 Vminpu=0.8 Vmaxpu=1.2 model=1 kW=4.38004 kvar=0.8894050559233643 Phases=2

New Load.load_p1ulv8696 conn=wye bus1=p1ulv8696.1.2.3 kV=0.48 Vminpu=0.8 Vmaxpu=1.2 model=1 kW=36.2604 kvar=7.362988258053249 Phases=3

New Load.load_p1ulv8697 conn=wye bus1=p1ulv8697.1.2.3 kV=0.48 Vminpu=0.8 Vmaxpu=1.2 model=1 kW=68.2207 kvar=13.852803969514214 Phases=3

New Load.load_p1ulv8699 conn=wye bus1=p1ulv8699.1.2 kV=0.2080002494301389 Vminpu=0.8 Vmaxpu=1.2 model=1 kW=11.19 kvar=0.7492945800859013 Phases=2

New Load.load_p1ulv8700 conn=wye bus1=p1ulv8700.1.2 kV=0.2080002494301389 Vminpu=0.8 Vmaxpu=1.2 model=1 kW=1.38001 kvar=0.28022298226153225 Phases=2

New Load.load_p1ulv8701 conn=wye bus1=p1ulv8701.1.2.3 kV=0.48 Vminpu=0.8 Vmaxpu=1.2 model=1 kW=33.920300000000005 kvar=6.887810686303615 Phases=3

New Load.load_p1ulv8831 conn=wye bus1=p1ulv8831.1.2 kV=0.2080002494301389 Vminpu=0.8 Vmaxpu=1.2 model=1 kW=11.510100000000001 kvar=2.337225489763453 Phases=2

New Load.load_p1ulv8832 conn=wye bus1=p1ulv8832.1.2 kV=0.2080002494301389 Vminpu=0.8 Vmaxpu=1.2 model=1 kW=17.7902 kvar=3.6124541844110625 Phases=2

New Load.load_p1ulv8834 conn=wye bus1=p1ulv8834.1.2 kV=0.2080002494301389 Vminpu=0.8 Vmaxpu=1.2 model=1 kW=14.9301 kvar=1.5087400626168963 Phases=2

New Load.load_p1ulv8835 conn=wye bus1=p1ulv8835.1.2.3 kV=0.48 Vminpu=0.8 Vmaxpu=1.2 model=1 kW=38.0004 kvar=7.716310327556417 Phases=3

New Load.load_p1ulv8836 conn=wye bus1=p1ulv8836.1.2.3 kV=0.48 Vminpu=0.8 Vmaxpu=1.2 model=1 kW=145.52100000000002 kvar=29.549299354120944 Phases=3

New Load.load_p1ulv9968 conn=wye bus1=p1ulv9968.1.2.3 kV=0.48 Vminpu=0.8 Vmaxpu=1.2 model=1 kW=99.911 kvar=20.287793842604003 Phases=3

New Load.load_p1ulv9969 conn=wye bus1=p1ulv9969.1.2.3 kV=0.48 Vminpu=0.8 Vmaxpu=1.2 model=1 kW=102.12099999999998 kvar=20.73655348260515 Phases=3

New Load.load_p1ulv9971 conn=wye bus1=p1ulv9971.1.2.3 kV=0.48 Vminpu=0.8 Vmaxpu=1.2 model=1 kW=95.901 kvar=19.473528613461646 Phases=3

New Load.load_p1ulv9974 conn=wye bus1=p1ulv9974.1.2.3 kV=0.48 Vminpu=0.8 Vmaxpu=1.2 model=1 kW=233.612 kvar=47.436939828031015 Phases=3

New Load.load_p1ulv9977 conn=wye bus1=p1ulv9977.1.2.3 kV=0.48 Vminpu=0.8 Vmaxpu=1.2 model=1 kW=90.25090000000002 kvar=18.32622687501346 Phases=3

New Load.load_p1ulv9978 conn=wye bus1=p1ulv9978.1.2.3 kV=0.48 Vminpu=0.8 Vmaxpu=1.2 model=1 kW=93.4109 kvar=18.967892242616912 Phases=3

New Load.load_p1ulv11130 conn=wye bus1=p1ulv11130.1.2 kV=0.2080002494301389 Vminpu=0.8 Vmaxpu=1.2 model=1 kW=5.14005 kvar=1.0410391316499712 Phases=2

New Load.load_p1ulv11135 conn=wye bus1=p1ulv11135.1.2 kV=0.2080002494301389 Vminpu=0.8 Vmaxpu=1.2 model=1 kW=7.78008 kvar=1.579812624425404 Phases=2

New Load.load_p1ulv11136 conn=wye bus1=p1ulv11136.1.2 kV=0.2080002494301389 Vminpu=0.8 Vmaxpu=1.2 model=1 kW=4.82005 kvar=0.9787528971889325 Phases=2

New Load.load_p1ulv11140 conn=wye bus1=p1ulv11140.1.2 kV=0.2080002494301389 Vminpu=0.8 Vmaxpu=1.2 model=1 kW=5.66006 kvar=1.149324202708102 Phases=2

New Load.load_p1ulv11142 conn=wye bus1=p1ulv11142.1.2 kV=0.2080002494301389 Vminpu=0.8 Vmaxpu=1.2 model=1 kW=4.37004 kvar=0.8896584561501336 Phases=2

New Load.load_p1ulv11143 conn=wye bus1=p1ulv11143.1.2 kV=0.2080002494301389 Vminpu=0.8 Vmaxpu=1.2 model=1 kW=4.65005 kvar=0.9393556410179604 Phases=2

New Load.load_p1ulv11144 conn=wye bus1=p1ulv11144.1.2 kV=0.2080002494301389 Vminpu=0.8 Vmaxpu=1.2 model=1 kW=6.43006 kvar=1.2989350938342485 Phases=2

New Load.load_p1ulv11147 conn=wye bus1=p1ulv11147.1.2 kV=0.2080002494301389 Vminpu=0.8 Vmaxpu=1.2 model=1 kW=5.86006 kvar=1.1899359348349032 Phases=2

New Load.load_p1ulv11148 conn=wye bus1=p1ulv11148.1.2 kV=0.2080002494301389 Vminpu=0.8 Vmaxpu=1.2 model=1 kW=4.81005 kvar=0.9792362671748885 Phases=2

New Load.load_p1ulv11273 conn=wye bus1=p1ulv11273.1.2.3 kV=0.48 Vminpu=0.8 Vmaxpu=1.2 model=1 kW=31.6103 kvar=6.418745180239066 Phases=3

New Load.load_p1ulv11274 conn=wye bus1=p1ulv11274.1.2 kV=0.2080002494301389 Vminpu=0.8 Vmaxpu=1.2 model=1 kW=6.25006 kvar=1.269128812482165 Phases=2

New Load.load_p1ulv11275 conn=wye bus1=p1ulv11275.1.2 kV=0.2080002494301389 Vminpu=0.8 Vmaxpu=1.2 model=1 kW=6.060060000000001 kvar=1.2305476669617041 Phases=2

New Load.load_p1ulv11276 conn=wye bus1=p1ulv11276.1.2 kV=0.2080002494301389 Vminpu=0.8 Vmaxpu=1.2 model=1 kW=5.69006 kvar=1.1613570361770957 Phases=2

New Load.load_p1ulv11277 conn=wye bus1=p1ulv11277.1.2 kV=0.2080002494301389 Vminpu=0.8 Vmaxpu=1.2 model=1 kW=4.99005 kvar=1.0106589077713133 Phases=2

New Load.load_p1ulv11278 conn=wye bus1=p1ulv11278.1.2.3 kV=0.48 Vminpu=0.8 Vmaxpu=1.2 model=1 kW=34.16030000000001 kvar=6.9365447648557765 Phases=3

New Load.load_p1ulv11279 conn=wye bus1=p1ulv11279.1.2.3 kV=0.48 Vminpu=0.8 Vmaxpu=1.2 model=1 kW=38.16040000000001 kvar=7.748799713257859 Phases=3

New Load.load_p1ulv11280 conn=wye bus1=p1ulv11280.1.2 kV=0.2080002494301389 Vminpu=0.8 Vmaxpu=1.2 model=1 kW=4.15004 kvar=0.8405276287025704 Phases=2

New Load.load_p1ulv11281 conn=wye bus1=p1ulv11281.1.2 kV=0.2080002494301389 Vminpu=0.8 Vmaxpu=1.2 model=1 kW=5.380050000000001 kvar=1.0896474898558242 Phases=2

New Load.load_p1ulv11282 conn=wye bus1=p1ulv11282.1.2 kV=0.2080002494301389 Vminpu=0.8 Vmaxpu=1.2 model=1 kW=4.35004 kvar=0.8810345938741143 Phases=2

New Load.load_p1ulv11283 conn=wye bus1=p1ulv11283.1.2 kV=0.2080002494301389 Vminpu=0.8 Vmaxpu=1.2 model=1 kW=6.77007 kvar=1.3711749484945712 Phases=2

New Load.load_p1ulv11285 conn=wye bus1=p1ulv11285.1.2 kV=0.2080002494301389 Vminpu=0.8 Vmaxpu=1.2 model=1 kW=4.590050000000001 kvar=0.9296449774282256 Phases=2

New Load.load_p1ulv11286 conn=wye bus1=p1ulv11286.1.2 kV=0.2080002494301389 Vminpu=0.8 Vmaxpu=1.2 model=1 kW=6.08006 kvar=1.231423893304486 Phases=2

New Load.load_p1ulv11287 conn=wye bus1=p1ulv11287.1.2 kV=0.2080002494301389 Vminpu=0.8 Vmaxpu=1.2 model=1 kW=8.24008 kvar=1.6689031678536776 Phases=2

New Load.load_p1ulv11288 conn=wye bus1=p1ulv11288.1.2 kV=0.2080002494301389 Vminpu=0.8 Vmaxpu=1.2 model=1 kW=7.61008 kvar=1.5413062275633143 Phases=2

New Load.load_p1ulv11289 conn=wye bus1=p1ulv11289.1.2 kV=0.2080002494301389 Vminpu=0.8 Vmaxpu=1.2 model=1 kW=4.97005 kvar=1.009211696284033 Phases=2

New Load.load_p1ulv11290 conn=wye bus1=p1ulv11290.1.2 kV=0.2080002494301389 Vminpu=0.8 Vmaxpu=1.2 model=1 kW=5.78006 kvar=1.1706634455471703 Phases=2

New Load.load_p1ulv11291 conn=wye bus1=p1ulv11291.1.2 kV=0.2080002494301389 Vminpu=0.8 Vmaxpu=1.2 model=1 kW=3.12003 kvar=0.6302766165192346 Phases=2

New Load.load_p1ulv11292 conn=wye bus1=p1ulv11292.1.2 kV=0.2080002494301389 Vminpu=0.8 Vmaxpu=1.2 model=1 kW=4.79005 kvar=0.9701519425997696 Phases=2

New Load.load_p1ulv11293 conn=wye bus1=p1ulv11293.1.2 kV=0.2080002494301389 Vminpu=0.8 Vmaxpu=1.2 model=1 kW=4.47004 kvar=0.9100165868800613 Phases=2

New Load.load_p1ulv11294 conn=wye bus1=p1ulv11294.1.2 kV=0.2080002494301389 Vminpu=0.8 Vmaxpu=1.2 model=1 kW=5.20005 kvar=1.061344635376904 Phases=2

New Load.load_p1ulv11295 conn=wye bus1=p1ulv11295.1.2 kV=0.2080002494301389 Vminpu=0.8 Vmaxpu=1.2 model=1 kW=3.15003 kvar=0.6396408727569326 Phases=2

New Load.load_p1ulv11296 conn=wye bus1=p1ulv11296.1.2 kV=0.2080002494301389 Vminpu=0.8 Vmaxpu=1.2 model=1 kW=4.840050000000001 kvar=0.9802786838926555 Phases=2
