New Line.l(r:p1ulv317-udt200lv) Units=km Length=0.011851100000000002 bus1=udt200lv.1.2 bus2=p1ulv317.1.2 switch=n enabled=y phases=2 Linecode=1P_UG_AL_1/0_Brenau_0_416_0_2_2

New Line.l(r:p1ulv318-udm738) Units=km Length=0.0125349 bus1=udm738.1.2 bus2=p1ulv318.1.2 switch=n enabled=y phases=2 Linecode=1P_UG_AL_1/0_Brenau_0_416_0_2_2

New Line.l(r:udm738-udt200lv) Units=km Length=0.009596190000000001 bus1=udt200lv.1.2 bus2=udm738.1.2 switch=n enabled=y phases=2 Linecode=1P_UG_AL_1/0_Brenau_0_416_0_2_2

New Line.l(r:p1ulv320-udm739) Units=km Length=0.011319 bus1=udm739.1.2 bus2=p1ulv320.1.2 switch=n enabled=y phases=2 Linecode=1P_UG_AL_1/0_Brenau_0_416_0_2_2

New Line.l(r:udm739-udt200lv) Units=km Length=0.009596190000000001 bus1=udt200lv.1.2 bus2=udm739.1.2 switch=n enabled=y phases=2 Linecode=1P_UG_AL_1/0_Brenau_0_416_0_2_2

New Line.l(r:p1ulv19325-udt201lv) Units=km Length=0.0187871 bus1=udt201lv.1.2 bus2=p1ulv19325.1.2 switch=n enabled=y phases=2 Linecode=1P_UG_AL_1/0_Brenau_0_416_0_2_2

New Line.l(r:p1ulv319-udm740) Units=km Length=0.0123964 bus1=udm740.1.2 bus2=p1ulv319.1.2 switch=n enabled=y phases=2 Linecode=1P_UG_AL_1/0_Brenau_0_416_0_2_2

New Line.l(r:udm740-udt201lv) Units=km Length=0.0665797 bus1=udt201lv.1.2 bus2=udm740.1.2 switch=n enabled=y phases=2 Linecode=1P_UG_AL_1/0_Brenau_0_416_0_2_2

New Line.l(r:p1ulv323-udt202lv) Units=km Length=0.0107693 bus1=udt202lv.1.2 bus2=p1ulv323.1.2 switch=n enabled=y phases=2 Linecode=1P_UG_AL_1/0_Brenau_0_416_0_2_2

New Line.l(r:p1ulv321-udm742) Units=km Length=0.0106075 bus1=udm742.1.2 bus2=p1ulv321.1.2 switch=n enabled=y phases=2 Linecode=1P_UG_AL_4/0_Sweetbriar_0_416_0_2_2

New Line.l(r:udm742-udt202lv) Units=km Length=0.00925067 bus1=udt202lv.1.2 bus2=udm742.1.2 switch=n enabled=y phases=2 Linecode=1P_UG_AL_4/0_Sweetbriar_0_416_0_2_2

New Line.l(r:p1ulv324-udm744) Units=km Length=0.0110225 bus1=udm744.1.2 bus2=p1ulv324.1.2 switch=n enabled=y phases=2 Linecode=1P_UG_AL_1/0_Brenau_0_416_0_2_2

New Line.l(r:udm744-udt202lv) Units=km Length=0.0092433 bus1=udt202lv.1.2 bus2=udm744.1.2 switch=n enabled=y phases=2 Linecode=1P_UG_AL_1/0_Brenau_0_416_0_2_2

New Line.l(r:p1ulv1504-udt727lv) Units=km Length=0.00906493 bus1=udt727lv.1.2 bus2=p1ulv1504.1.2 switch=n enabled=y phases=2 Linecode=1P_UG_AL_1/0_Brenau_0_416_0_2_2

New Line.l(r:p1ulv1508-udt731lv) Units=km Length=0.0107013 bus1=udt731lv.1.2 bus2=p1ulv1508.1.2 switch=n enabled=y phases=2 Linecode=1P_OH_AL_2/0_Rucina_0_416_0_2_2

New Line.l(r:p1ulv3380-udt1569lv) Units=km Length=0.0143525 bus1=udt1569lv.1.2 bus2=p1ulv3380.1.2 switch=n enabled=y phases=2 Linecode=1P_UG_AL_1/0_Brenau_0_416_0_2_2

New Line.l(r:p1ulv3357-udm6312) Units=km Length=0.0137148 bus1=udm6312.1.2 bus2=p1ulv3357.1.2 switch=n enabled=y phases=2 Linecode=1P_UG_AL_1/0_Brenau_0_416_0_2_2

New Line.l(r:udm6312-udt1569lv) Units=km Length=0.0195519 bus1=udt1569lv.1.2 bus2=udm6312.1.2 switch=n enabled=y phases=2 Linecode=1P_UG_AL_1/0_Brenau_0_416_0_2_2

New Line.l(r:p1ulv3375-udm6313) Units=km Length=0.0134553 bus1=udm6313.1.2 bus2=p1ulv3375.1.2 switch=n enabled=y phases=2 Linecode=1P_UG_AL_1/0_Brenau_0_416_0_2_2

New Line.l(r:p1ulv42231-udm6313) Units=km Length=0.00984017 bus1=udm6313.1.2 bus2=p1ulv42231.1.2 switch=n enabled=y phases=2 Linecode=1P_UG_AL_1/0_Brenau_0_416_0_2_2

New Line.l(r:udm6313-udt1569lv) Units=km Length=0.019552 bus1=udt1569lv.1.2 bus2=udm6313.1.2 switch=n enabled=y phases=2 Linecode=1P_UG_AL_4/0_Sweetbriar_0_416_0_2_2

New Line.l(r:p1ulv3358-udm6316) Units=km Length=0.0125568 bus1=udm6316.1.2 bus2=p1ulv3358.1.2 switch=n enabled=y phases=2 Linecode=1P_UG_AL_1/0_Brenau_0_416_0_2_2

New Line.l(r:p1ulv47485-udm6320) Units=km Length=0.0157532 bus1=udm6320.1.2 bus2=p1ulv47485.1.2 switch=n enabled=y phases=2 Linecode=1P_UG_AL_1/0_Brenau_0_416_0_2_2

New Line.l(r:udm6316-udm6320) Units=km Length=0.009781000000000001 bus1=udm6316.1.2 bus2=udm6320.1.2 switch=n enabled=y phases=2 Linecode=1P_UG_AL_1/0_Brenau_0_416_0_2_2

New Line.l(r:udm6316-udt1570lv) Units=km Length=0.029323 bus1=udt1570lv.1.2 bus2=udm6316.1.2 switch=n enabled=y phases=2 Linecode=1P_UG_AL_1/0_Brenau_0_416_0_2_2

New Line.l(r:p1ulv42674-udm6318) Units=km Length=0.0119345 bus1=udm6318.1.2 bus2=p1ulv42674.1.2 switch=n enabled=y phases=2 Linecode=1P_UG_AL_1/0_Brenau_0_416_0_2_2

New Line.l(r:p1ulv35485-udm6317) Units=km Length=0.0110524 bus1=udm6317.1.2 bus2=p1ulv35485.1.2 switch=n enabled=y phases=2 Linecode=1P_UG_AL_1/0_Brenau_0_416_0_2_2

New Line.l(r:udm6317-udm6318) Units=km Length=0.00990099 bus1=udm6318.1.2 bus2=udm6317.1.2 switch=n enabled=y phases=2 Linecode=1P_UG_AL_1/0_Brenau_0_416_0_2_2

New Line.l(r:udm6318-udt1570lv) Units=km Length=0.029693 bus1=udt1570lv.1.2 bus2=udm6318.1.2 switch=n enabled=y phases=2 Linecode=1P_UG_AL_4/0_Sweetbriar_0_416_0_2_2

New Line.l(r:p1ulv44461-udm6319) Units=km Length=0.00837207 bus1=udm6319.1.2 bus2=p1ulv44461.1.2 switch=n enabled=y phases=2 Linecode=1P_UG_AL_1/0_Brenau_0_416_0_2_2

New Line.l(r:udm6319-udt1570lv) Units=km Length=0.00830275 bus1=udt1570lv.1.2 bus2=udm6319.1.2 switch=n enabled=y phases=2 Linecode=1P_UG_AL_1/0_Brenau_0_416_0_2_2

New Line.l(r:p1ulv37490-udt1571lv) Units=km Length=0.0157752 bus1=udt1571lv.1.2 bus2=p1ulv37490.1.2 switch=n enabled=y phases=2 Linecode=1P_UG_AL_1/0_Brenau_0_416_0_2_2

New Line.l(r:p1ulv3359-udm6321) Units=km Length=0.0125003 bus1=udm6321.1.2 bus2=p1ulv3359.1.2 switch=n enabled=y phases=2 Linecode=1P_UG_AL_4/0_Sweetbriar_0_416_0_2_2

New Line.l(r:udm6321-udt1571lv) Units=km Length=0.00925864 bus1=udt1571lv.1.2 bus2=udm6321.1.2 switch=n enabled=y phases=2 Linecode=1P_UG_AL_4/0_Sweetbriar_0_416_0_2_2

New Line.l(r:p1ulv3362-udm6322) Units=km Length=0.0128754 bus1=udm6322.1.2 bus2=p1ulv3362.1.2 switch=n enabled=y phases=2 Linecode=1P_UG_AL_1/0_Brenau_0_416_0_2_2

New Line.l(r:udm6322-udt1571lv) Units=km Length=0.00926821 bus1=udt1571lv.1.2 bus2=udm6322.1.2 switch=n enabled=y phases=2 Linecode=1P_UG_AL_1/0_Brenau_0_416_0_2_2

New Line.l(r:p1ulv3372-udt1579lv) Units=km Length=0.0160329 bus1=udt1579lv.1.2 bus2=p1ulv3372.1.2 switch=n enabled=y phases=2 Linecode=1P_OH_AL_2/0_Rucina_0_416_0_2_2

New Line.l(r:p1ulv3418-udt1579lv) Units=km Length=0.0127074 bus1=udt1579lv.1.2 bus2=p1ulv3418.1.2 switch=n enabled=y phases=2 Linecode=1P_OH_AL_2/0_Rucina_0_416_0_2_2

New Line.l(r:p1ulv3419-udm6343) Units=km Length=0.0149605 bus1=udm6343.1.2 bus2=p1ulv3419.1.2 switch=n enabled=y phases=2 Linecode=1P_UG_AL_1/0_Brenau_0_416_0_2_2

New Line.l(r:udm6343-udt1579lv) Units=km Length=0.0659932 bus1=udt1579lv.1.2 bus2=udm6343.1.2 switch=n enabled=y phases=2 Linecode=1P_OH_AL_4/0_Zuzara_0_416_0_2_2

New Line.l(r:p1ulv33426-udm6344) Units=km Length=0.0159454 bus1=udm6344.1.2 bus2=p1ulv33426.1.2 switch=n enabled=y phases=2 Linecode=1P_OH_AL_2/0_Rucina_0_416_0_2_2

New Line.l(r:udm6344-udt1579lv) Units=km Length=0.0184924 bus1=udt1579lv.1.2 bus2=udm6344.1.2 switch=n enabled=y phases=2 Linecode=1P_OH_AL_2/0_Rucina_0_416_0_2_2

New Line.l(r:p1ulv3373-udm6345) Units=km Length=0.0127944 bus1=udm6345.1.2 bus2=p1ulv3373.1.2 switch=n enabled=y phases=2 Linecode=1P_UG_AL_1/0_Brenau_0_416_0_2_2

New Line.l(r:p1ulv31283-udm6345) Units=km Length=0.00885895 bus1=udm6345.1.2 bus2=p1ulv31283.1.2 switch=n enabled=y phases=2 Linecode=1P_UG_AL_1/0_Brenau_0_416_0_2_2

New Line.l(r:udm6345-udt1580lv) Units=km Length=0.00978086 bus1=udt1580lv.1.2 bus2=udm6345.1.2 switch=n enabled=y phases=2 Linecode=1P_UG_AL_4/0_Sweetbriar_0_416_0_2_2

New Line.l(r:p1ulv3412-udm6346) Units=km Length=0.012935600000000002 bus1=udm6346.1.2 bus2=p1ulv3412.1.2 switch=n enabled=y phases=2 Linecode=1P_OH_AL_2/0_Rucina_0_416_0_2_2

New Line.l(r:udm6346-udt1580lv) Units=km Length=0.009771 bus1=udt1580lv.1.2 bus2=udm6346.1.2 switch=n enabled=y phases=2 Linecode=1P_OH_AL_2/0_Rucina_0_416_0_2_2

New Line.l(r:p1ulv3377-udt1583lv) Units=km Length=0.0221063 bus1=udt1583lv.1.2 bus2=p1ulv3377.1.2 switch=n enabled=y phases=2 Linecode=1P_UG_AL_1/0_Brenau_0_416_0_2_2

New Line.l(r:p1ulv3393-udt1584lv) Units=km Length=0.0168073 bus1=udt1584lv.1.2 bus2=p1ulv3393.1.2 switch=n enabled=y phases=2 Linecode=1P_UG_AL_1/0_Brenau_0_416_0_2_2

New Line.l(r:p1ulv3404-udt1584lv) Units=km Length=0.0178493 bus1=udt1584lv.1.2 bus2=p1ulv3404.1.2 switch=n enabled=y phases=2 Linecode=1P_UG_AL_1/0_Brenau_0_416_0_2_2

New Line.l(r:p1ulv3381-udm6355) Units=km Length=0.0152272 bus1=udm6355.1.2 bus2=p1ulv3381.1.2 switch=n enabled=y phases=2 Linecode=1P_UG_AL_1/0_Brenau_0_416_0_2_2

New Line.l(r:p1ulv50515-udm6362) Units=km Length=0.0162148 bus1=udm6362.1.2 bus2=p1ulv50515.1.2 switch=n enabled=y phases=2 Linecode=1P_UG_AL_1/0_Brenau_0_416_0_2_2

New Line.l(r:p1ulv16465-udm6359) Units=km Length=0.00742445 bus1=udm6359.1.2 bus2=p1ulv16465.1.2 switch=n enabled=y phases=2 Linecode=1P_UG_AL_1/0_Brenau_0_416_0_2_2

New Line.l(r:udm6359-udm6362) Units=km Length=0.0432168 bus1=udm6362.1.2 bus2=udm6359.1.2 switch=n enabled=y phases=2 Linecode=1P_UG_AL_1/0_Brenau_0_416_0_2_2

New Line.l(r:udm6355-udm6362) Units=km Length=0.009921820000000001 bus1=udm6355.1.2 bus2=udm6362.1.2 switch=n enabled=y phases=2 Linecode=1P_UG_AL_2/0_Converse_0_416_0_2_2

New Line.l(r:udm6355-udt1584lv) Units=km Length=0.009921820000000001 bus1=udt1584lv.1.2 bus2=udm6355.1.2 switch=n enabled=y phases=2 Linecode=1P_UG_AL_4/0_Sweetbriar_0_416_0_2_2

New Line.l(r:p1ulv48924-udm6361) Units=km Length=0.0197105 bus1=udm6361.1.2 bus2=p1ulv48924.1.2 switch=n enabled=y phases=2 Linecode=1P_UG_AL_1/0_Brenau_0_416_0_2_2

New Line.l(r:p1ulv3395-udm6357) Units=km Length=0.0174179 bus1=udm6357.1.2 bus2=p1ulv3395.1.2 switch=n enabled=y phases=2 Linecode=1P_UG_AL_1/0_Brenau_0_416_0_2_2

New Line.l(r:p1ulv28792-udm6357) Units=km Length=0.017989600000000005 bus1=udm6357.1.2 bus2=p1ulv28792.1.2 switch=n enabled=y phases=2 Linecode=1P_UG_AL_1/0_Brenau_0_416_0_2_2

New Line.l(r:udm6357-udm6361) Units=km Length=0.0198435 bus1=udm6361.1.2 bus2=udm6357.1.2 switch=n enabled=y phases=2 Linecode=1P_UG_AL_4/0_Sweetbriar_0_416_0_2_2

New Line.l(r:udm6361-udt1584lv) Units=km Length=0.009921820000000001 bus1=udt1584lv.1.2 bus2=udm6361.1.2 switch=n enabled=y phases=2 Linecode=1P_UG_AL_4/0_Sweetbriar_0_416_0_2_2

New Line.l(r:p1ulv3382-udm6363) Units=km Length=0.0136505 bus1=udm6363.1.2 bus2=p1ulv3382.1.2 switch=n enabled=y phases=2 Linecode=1P_UG_AL_1/0_Brenau_0_416_0_2_2

New Line.l(r:udm6363-udt1585lv) Units=km Length=0.00947103 bus1=udt1585lv.1.2 bus2=udm6363.1.2 switch=n enabled=y phases=2 Linecode=1P_UG_AL_1/0_Brenau_0_416_0_2_2

New Line.l(r:p1ulv40947-udm6364) Units=km Length=0.0132173 bus1=udm6364.1.2 bus2=p1ulv40947.1.2 switch=n enabled=y phases=2 Linecode=1P_UG_AL_1/0_Brenau_0_416_0_2_2

New Line.l(r:udm6364-udt1585lv) Units=km Length=0.0580624 bus1=udt1585lv.1.2 bus2=udm6364.1.2 switch=n enabled=y phases=2 Linecode=1P_UG_AL_1/0_Brenau_0_416_0_2_2

New Line.l(r:p1ulv3384-udm6366) Units=km Length=0.0108079 bus1=udm6366.1.2 bus2=p1ulv3384.1.2 switch=n enabled=y phases=2 Linecode=1P_UG_AL_1/0_Brenau_0_416_0_2_2

New Line.l(r:udm6366-udt1587lv) Units=km Length=0.039007 bus1=udt1587lv.1.2 bus2=udm6366.1.2 switch=n enabled=y phases=2 Linecode=1P_UG_AL_1/0_Brenau_0_416_0_2_2

New Line.l(r:p1ulv3385-udm6367) Units=km Length=0.0214436 bus1=udm6367.1.2 bus2=p1ulv3385.1.2 switch=n enabled=y phases=2 Linecode=1P_UG_AL_1/0_Brenau_0_416_0_2_2

New Line.l(r:p1ulv3397-udm6367) Units=km Length=0.0174621 bus1=udm6367.1.2 bus2=p1ulv3397.1.2 switch=n enabled=y phases=2 Linecode=1P_UG_AL_1/0_Brenau_0_416_0_2_2

New Line.l(r:udm6367-udt1587lv) Units=km Length=0.00962025 bus1=udt1587lv.1.2 bus2=udm6367.1.2 switch=n enabled=y phases=2 Linecode=1P_UG_AL_1/0_Brenau_0_416_0_2_2

New Line.l(r:p1ulv3386-udt1588lv) Units=km Length=0.0215702 bus1=udt1588lv.1.2 bus2=p1ulv3386.1.2 switch=n enabled=y phases=2 Linecode=1P_UG_AL_2/0_Converse_0_416_0_2_2

New Line.l(r:p1ulv3387-udm6370) Units=km Length=0.0400986 bus1=udm6370.1.2 bus2=p1ulv3387.1.2 switch=n enabled=y phases=2 Linecode=1P_UG_AL_4/0_Sweetbriar_0_416_0_2_2

New Line.l(r:udm6370-udt1589lv) Units=km Length=0.00990099 bus1=udt1589lv.1.2 bus2=udm6370.1.2 switch=n enabled=y phases=2 Linecode=1P_UG_AL_4/0_Sweetbriar_0_416_0_2_2

New Line.l(r:p1ulv38723-udm6371) Units=km Length=0.0155902 bus1=udm6371.1.2 bus2=p1ulv38723.1.2 switch=n enabled=y phases=2 Linecode=1P_UG_AL_1/0_Brenau_0_416_0_2_2

New Line.l(r:udm6371-udt1589lv) Units=km Length=0.00990099 bus1=udt1589lv.1.2 bus2=udm6371.1.2 switch=n enabled=y phases=2 Linecode=1P_UG_AL_1/0_Brenau_0_416_0_2_2

New Line.l(r:p1ulv3388-udm6372) Units=km Length=0.0171739 bus1=udm6372.1.2 bus2=p1ulv3388.1.2 switch=n enabled=y phases=2 Linecode=1P_UG_AL_4/0_Sweetbriar_0_416_0_2_2

New Line.l(r:udm6372-udt1590lv) Units=km Length=0.00996206 bus1=udt1590lv.1.2 bus2=udm6372.1.2 switch=n enabled=y phases=2 Linecode=1P_UG_AL_4/0_Sweetbriar_0_416_0_2_2

New Line.l(r:p1ulv3390-udm6373) Units=km Length=0.00799762 bus1=udm6373.1.2 bus2=p1ulv3390.1.2 switch=n enabled=y phases=2 Linecode=1P_UG_AL_1/0_Brenau_0_416_0_2_2

New Line.l(r:p1ulv45967-udm6374) Units=km Length=0.0109864 bus1=udm6374.1.2 bus2=p1ulv45967.1.2 switch=n enabled=y phases=2 Linecode=1P_UG_AL_1/0_Brenau_0_416_0_2_2

New Line.l(r:udm6373-udm6374) Units=km Length=0.00996206 bus1=udm6373.1.2 bus2=udm6374.1.2 switch=n enabled=y phases=2 Linecode=1P_UG_AL_1/0_Brenau_0_416_0_2_2

New Line.l(r:udm6373-udt1590lv) Units=km Length=0.00995207 bus1=udt1590lv.1.2 bus2=udm6373.1.2 switch=n enabled=y phases=2 Linecode=1P_UG_AL_4/0_Sweetbriar_0_416_0_2_2

New Line.l(r:p1ulv3389-udt1591lv) Units=km Length=0.0105597 bus1=udt1591lv.1.2 bus2=p1ulv3389.1.2 switch=n enabled=y phases=2 Linecode=1P_UG_AL_4/0_Sweetbriar_0_416_0_2_2

New Line.l(r:p1ulv3409-udt1592lv) Units=km Length=0.010884500000000002 bus1=udt1592lv.1.2 bus2=p1ulv3409.1.2 switch=n enabled=y phases=2 Linecode=1P_UG_AL_1/0_Brenau_0_416_0_2_2

New Line.l(r:p1ulv3391-udm6376) Units=km Length=0.014797 bus1=udm6376.1.2 bus2=p1ulv3391.1.2 switch=n enabled=y phases=2 Linecode=1P_UG_AL_1/0_Brenau_0_416_0_2_2

New Line.l(r:p1ulv4787-udm6376) Units=km Length=0.016590600000000004 bus1=udm6376.1.2 bus2=p1ulv4787.1.2 switch=n enabled=y phases=2 Linecode=1P_UG_AL_1/0_Brenau_0_416_0_2_2

New Line.l(r:udm6376-udt1592lv) Units=km Length=0.009921820000000001 bus1=udt1592lv.1.2 bus2=udm6376.1.2 switch=n enabled=y phases=2 Linecode=1P_UG_AL_2/0_Converse_0_416_0_2_2

New Line.l(r:p1ulv3408-udm6377) Units=km Length=0.01648 bus1=udm6377.1.2 bus2=p1ulv3408.1.2 switch=n enabled=y phases=2 Linecode=1P_UG_AL_1/0_Brenau_0_416_0_2_2

New Line.l(r:p1ulv46030-udm6380) Units=km Length=0.0128481 bus1=udm6380.1.2 bus2=p1ulv46030.1.2 switch=n enabled=y phases=2 Linecode=1P_UG_AL_1/0_Brenau_0_416_0_2_2

New Line.l(r:udm6377-udm6380) Units=km Length=0.0197763 bus1=udm6377.1.2 bus2=udm6380.1.2 switch=n enabled=y phases=2 Linecode=1P_UG_AL_1/0_Brenau_0_416_0_2_2

New Line.l(r:udm6377-udt1592lv) Units=km Length=0.0693182 bus1=udt1592lv.1.2 bus2=udm6377.1.2 switch=n enabled=y phases=2 Linecode=1P_UG_AL_1/0_Brenau_0_416_0_2_2

New Line.l(r:p1ulv3392-udm6381) Units=km Length=0.0106166 bus1=udm6381.1.2 bus2=p1ulv3392.1.2 switch=n enabled=y phases=2 Linecode=1P_UG_AL_1/0_Brenau_0_416_0_2_2

New Line.l(r:udm6381-udt1593lv) Units=km Length=0.00921665 bus1=udt1593lv.1.2 bus2=udm6381.1.2 switch=n enabled=y phases=2 Linecode=1P_UG_AL_1/0_Brenau_0_416_0_2_2

New Line.l(r:p1ulv3394-udm6382) Units=km Length=0.0133405 bus1=udm6382.1.2 bus2=p1ulv3394.1.2 switch=n enabled=y phases=2 Linecode=1P_UG_AL_1/0_Brenau_0_416_0_2_2

New Line.l(r:udm6382-udt1593lv) Units=km Length=0.00921665 bus1=udt1593lv.1.2 bus2=udm6382.1.2 switch=n enabled=y phases=2 Linecode=1P_UG_AL_1/0_Brenau_0_416_0_2_2

New Line.l(r:p1ulv3396-udm6383) Units=km Length=0.0121404 bus1=udm6383.1.2 bus2=p1ulv3396.1.2 switch=n enabled=y phases=2 Linecode=1P_UG_AL_1/0_Brenau_0_416_0_2_2

New Line.l(r:p1ulv3399-udm6383) Units=km Length=0.011353 bus1=udm6383.1.2 bus2=p1ulv3399.1.2 switch=n enabled=y phases=2 Linecode=1P_UG_AL_1/0_Brenau_0_416_0_2_2

New Line.l(r:p1ulv37819-udm6383) Units=km Length=0.0144162 bus1=udm6383.1.2 bus2=p1ulv37819.1.2 switch=n enabled=y phases=2 Linecode=1P_UG_AL_2/0_Converse_0_416_0_2_2

New Line.l(r:udm6383-udt1594lv) Units=km Length=0.0189319 bus1=udt1594lv.1.2 bus2=udm6383.1.2 switch=n enabled=y phases=2 Linecode=1P_UG_AL_4/0_Sweetbriar_0_416_0_2_2

New Line.l(r:p1ulv26903-udm6385) Units=km Length=0.0109547 bus1=udm6385.1.2 bus2=p1ulv26903.1.2 switch=n enabled=y phases=2 Linecode=1P_UG_AL_1/0_Brenau_0_416_0_2_2

New Line.l(r:p1ulv27291-udm6386) Units=km Length=0.0150463 bus1=udm6386.1.2 bus2=p1ulv27291.1.2 switch=n enabled=y phases=2 Linecode=1P_UG_AL_1/0_Brenau_0_416_0_2_2

New Line.l(r:udm6385-udm6386) Units=km Length=0.0189219 bus1=udm6385.1.2 bus2=udm6386.1.2 switch=n enabled=y phases=2 Linecode=1P_UG_AL_1/0_Brenau_0_416_0_2_2

New Line.l(r:udm6385-udt1594lv) Units=km Length=0.00947103 bus1=udt1594lv.1.2 bus2=udm6385.1.2 switch=n enabled=y phases=2 Linecode=1P_UG_AL_1/0_Brenau_0_416_0_2_2

New Line.l(r:p1ulv3398-udt1595lv) Units=km Length=0.0144205 bus1=udt1595lv.1.2 bus2=p1ulv3398.1.2 switch=n enabled=y phases=2 Linecode=1P_UG_AL_1/0_Brenau_0_416_0_2_2

New Line.l(r:p1ulv32868-udm6392) Units=km Length=0.0103246 bus1=udm6392.1.2 bus2=p1ulv32868.1.2 switch=n enabled=y phases=2 Linecode=1P_UG_AL_1/0_Brenau_0_416_0_2_2

New Line.l(r:p1ulv39531-udm6392) Units=km Length=0.010366 bus1=udm6392.1.2 bus2=p1ulv39531.1.2 switch=n enabled=y phases=2 Linecode=1P_UG_AL_1/0_Brenau_0_416_0_2_2

New Line.l(r:p1ulv27902-udm6391) Units=km Length=0.014756600000000002 bus1=udm6391.1.2 bus2=p1ulv27902.1.2 switch=n enabled=y phases=2 Linecode=1P_UG_AL_1/0_Brenau_0_416_0_2_2

New Line.l(r:p1ulv3403-udm6389) Units=km Length=0.0184633 bus1=udm6389.1.2 bus2=p1ulv3403.1.2 switch=n enabled=y phases=2 Linecode=1P_UG_AL_1/0_Brenau_0_416_0_2_2

New Line.l(r:p1ulv47861-udm6389) Units=km Length=0.013699500000000002 bus1=udm6389.1.2 bus2=p1ulv47861.1.2 switch=n enabled=y phases=2 Linecode=1P_UG_AL_1/0_Brenau_0_416_0_2_2

New Line.l(r:udm6389-udm6391) Units=km Length=0.0094112 bus1=udm6391.1.2 bus2=udm6389.1.2 switch=n enabled=y phases=2 Linecode=1P_UG_AL_1/0_Brenau_0_416_0_2_2

New Line.l(r:udm6391-udm6392) Units=km Length=0.0094012 bus1=udm6392.1.2 bus2=udm6391.1.2 switch=n enabled=y phases=2 Linecode=1P_UG_AL_4/0_Sweetbriar_0_416_0_2_2

New Line.l(r:udm6392-udt1595lv) Units=km Length=0.0094112 bus1=udt1595lv.1.2 bus2=udm6392.1.2 switch=n enabled=y phases=2 Linecode=1P_UG_AL_4/0_Sweetbriar_0_416_0_2_2

New Line.l(r:p1ulv33718-udm6393) Units=km Length=0.0144188 bus1=udm6393.1.2 bus2=p1ulv33718.1.2 switch=n enabled=y phases=2 Linecode=1P_UG_AL_1/0_Brenau_0_416_0_2_2

New Line.l(r:p1ulv4782-udm6390) Units=km Length=0.0114196 bus1=udm6390.1.2 bus2=p1ulv4782.1.2 switch=n enabled=y phases=2 Linecode=1P_UG_AL_1/0_Brenau_0_416_0_2_2

New Line.l(r:udm6390-udm6393) Units=km Length=0.0700012 bus1=udm6393.1.2 bus2=udm6390.1.2 switch=n enabled=y phases=2 Linecode=1P_UG_AL_1/0_Brenau_0_416_0_2_2

New Line.l(r:udm6393-udt1595lv) Units=km Length=0.00940104 bus1=udt1595lv.1.2 bus2=udm6393.1.2 switch=n enabled=y phases=2 Linecode=1P_UG_AL_1/0_Brenau_0_416_0_2_2

New Line.l(r:p1ulv3401-udt1596lv) Units=km Length=0.0206933 bus1=udt1596lv.1.2 bus2=p1ulv3401.1.2 switch=n enabled=y phases=2 Linecode=1P_UG_AL_1/0_Brenau_0_416_0_2_2

New Line.l(r:p1ulv3402-udt1597lv) Units=km Length=0.0167775 bus1=udt1597lv.1.2 bus2=p1ulv3402.1.2 switch=n enabled=y phases=2 Linecode=1P_UG_AL_1/0_Brenau_0_416_0_2_2

New Line.l(r:p1ulv4785-udt1597lv) Units=km Length=0.0100962 bus1=udt1597lv.1.2 bus2=p1ulv4785.1.2 switch=n enabled=y phases=2 Linecode=1P_UG_AL_1/0_Brenau_0_416_0_2_2

New Line.l(r:p1ulv29633-udm6399) Units=km Length=0.010104900000000002 bus1=udm6399.1.2 bus2=p1ulv29633.1.2 switch=n enabled=y phases=2 Linecode=1P_UG_AL_1/0_Brenau_0_416_0_2_2

New Line.l(r:udm6399-udt1597lv) Units=km Length=0.0094112 bus1=udt1597lv.1.2 bus2=udm6399.1.2 switch=n enabled=y phases=2 Linecode=1P_UG_AL_1/0_Brenau_0_416_0_2_2

New Line.l(r:p1ulv3405-udt1598lv) Units=km Length=0.0123141 bus1=udt1598lv.1.2 bus2=p1ulv3405.1.2 switch=n enabled=y phases=2 Linecode=1P_UG_AL_1/0_Brenau_0_416_0_2_2

New Line.l(r:p1ulv36679-udt1598lv) Units=km Length=0.0135244 bus1=udt1598lv.1.2 bus2=p1ulv36679.1.2 switch=n enabled=y phases=2 Linecode=1P_UG_AL_1/0_Brenau_0_416_0_2_2

New Line.l(r:p1ulv3406-udm6401) Units=km Length=0.0103868 bus1=udm6401.1.2 bus2=p1ulv3406.1.2 switch=n enabled=y phases=2 Linecode=1P_UG_AL_1/0_Brenau_0_416_0_2_2

New Line.l(r:udm6401-udt1598lv) Units=km Length=0.009266820000000002 bus1=udt1598lv.1.2 bus2=udm6401.1.2 switch=n enabled=y phases=2 Linecode=1P_UG_AL_1/0_Brenau_0_416_0_2_2

New Line.l(r:p1ulv32045-udm6402) Units=km Length=0.0108779 bus1=udm6402.1.2 bus2=p1ulv32045.1.2 switch=n enabled=y phases=2 Linecode=1P_UG_AL_2/0_Converse_0_416_0_2_2

New Line.l(r:udm6402-udt1598lv) Units=km Length=0.0164951 bus1=udt1598lv.1.2 bus2=udm6402.1.2 switch=n enabled=y phases=2 Linecode=1P_UG_AL_2/0_Converse_0_416_0_2_2

New Line.l(r:p1ulv26459-udt1599lv) Units=km Length=0.016235 bus1=udt1599lv.1.2 bus2=p1ulv26459.1.2 switch=n enabled=y phases=2 Linecode=1P_UG_AL_1/0_Brenau_0_416_0_2_2

New Line.l(r:p1ulv36180-udt1599lv) Units=km Length=0.0157457 bus1=udt1599lv.1.2 bus2=p1ulv36180.1.2 switch=n enabled=y phases=2 Linecode=1P_UG_AL_1/0_Brenau_0_416_0_2_2

New Line.l(r:p1ulv37761-udt1599lv) Units=km Length=0.040848 bus1=udt1599lv.1.2 bus2=p1ulv37761.1.2 switch=n enabled=y phases=2 Linecode=1P_UG_AL_1/0_Brenau_0_416_0_2_2

New Line.l(r:p1ulv31895-udm6406) Units=km Length=0.0127276 bus1=udm6406.1.2 bus2=p1ulv31895.1.2 switch=n enabled=y phases=2 Linecode=1P_UG_AL_1/0_Brenau_0_416_0_2_2

New Line.l(r:p1ulv3407-udm6404) Units=km Length=0.0136336 bus1=udm6404.1.2 bus2=p1ulv3407.1.2 switch=n enabled=y phases=2 Linecode=1P_UG_AL_1/0_Brenau_0_416_0_2_2

New Line.l(r:udm6404-udm6406) Units=km Length=0.00990099 bus1=udm6406.1.2 bus2=udm6404.1.2 switch=n enabled=y phases=2 Linecode=1P_UG_AL_1/0_Brenau_0_416_0_2_2

New Line.l(r:udm6406-udt1599lv) Units=km Length=0.00990099 bus1=udt1599lv.1.2 bus2=udm6406.1.2 switch=n enabled=y phases=2 Linecode=1P_UG_AL_1/0_Brenau_0_416_0_2_2

New Line.l(r:p1ulv47547-udm6409) Units=km Length=0.0149468 bus1=udm6409.1.2 bus2=p1ulv47547.1.2 switch=n enabled=y phases=2 Linecode=1P_UG_AL_1/0_Brenau_0_416_0_2_2

New Line.l(r:udm6409-udt1599lv) Units=km Length=0.00990099 bus1=udt1599lv.1.2 bus2=udm6409.1.2 switch=n enabled=y phases=2 Linecode=1P_UG_AL_1/0_Brenau_0_416_0_2_2

New Line.l(r:p1ulv3410-udt1600lv) Units=km Length=0.017058 bus1=udt1600lv.1.2 bus2=p1ulv3410.1.2 switch=n enabled=y phases=2 Linecode=1P_OH_AL_2/0_Rucina_0_416_0_2_2

New Line.l(r:p1ulv44208-udt1601lv) Units=km Length=0.0113525 bus1=udt1601lv.1.2 bus2=p1ulv44208.1.2 switch=n enabled=y phases=2 Linecode=1P_OH_AL_2/0_Rucina_0_416_0_2_2

New Line.l(r:p1ulv45847-udt1601lv) Units=km Length=0.0183461 bus1=udt1601lv.1.2 bus2=p1ulv45847.1.2 switch=n enabled=y phases=2 Linecode=1P_OH_AL_2/0_Rucina_0_416_0_2_2

New Line.l(r:p1ulv39152-udm6412) Units=km Length=0.0123074 bus1=udm6412.1.2 bus2=p1ulv39152.1.2 switch=n enabled=y phases=2 Linecode=1P_OH_AL_2/0_Rucina_0_416_0_2_2

New Line.l(r:udm6412-udt1601lv) Units=km Length=0.0183052 bus1=udt1601lv.1.2 bus2=udm6412.1.2 switch=n enabled=y phases=2 Linecode=1P_OH_AL_2/0_Rucina_0_416_0_2_2

New Line.l(r:p1ulv39380-udm6413) Units=km Length=0.0193916 bus1=udm6413.1.2 bus2=p1ulv39380.1.2 switch=n enabled=y phases=2 Linecode=1P_OH_AL_2/0_Rucina_0_416_0_2_2

New Line.l(r:p1ulv47839-udm6413) Units=km Length=0.0121036 bus1=udm6413.1.2 bus2=p1ulv47839.1.2 switch=n enabled=y phases=2 Linecode=1P_OH_AL_2/0_Rucina_0_416_0_2_2

New Line.l(r:p1ulv3411-udm6411) Units=km Length=0.0124456 bus1=udm6411.1.2 bus2=p1ulv3411.1.2 switch=n enabled=y phases=2 Linecode=1P_OH_AL_2/0_Rucina_0_416_0_2_2

New Line.l(r:udm6411-udm6413) Units=km Length=0.0183052 bus1=udm6413.1.2 bus2=udm6411.1.2 switch=n enabled=y phases=2 Linecode=1P_OH_AL_2/0_Rucina_0_416_0_2_2

New Line.l(r:udm6413-udt1601lv) Units=km Length=0.0182952 bus1=udt1601lv.1.2 bus2=udm6413.1.2 switch=n enabled=y phases=2 Linecode=1P_OH_AL_2/0_Rucina_0_416_0_2_2

New Line.l(r:p1ulv3413-udm6417) Units=km Length=0.0154361 bus1=udm6417.1.2 bus2=p1ulv3413.1.2 switch=n enabled=y phases=2 Linecode=1P_UG_AL_1/0_Brenau_0_416_0_2_2

New Line.l(r:p1ulv3415-udm6418) Units=km Length=0.0154052 bus1=udm6418.1.2 bus2=p1ulv3415.1.2 switch=n enabled=y phases=2 Linecode=1P_UG_AL_1/0_Brenau_0_416_0_2_2

New Line.l(r:udm6417-udm6418) Units=km Length=0.00966347 bus1=udm6417.1.2 bus2=udm6418.1.2 switch=n enabled=y phases=2 Linecode=1P_UG_AL_1/0_Brenau_0_416_0_2_2

New Line.l(r:udm6417-udt1602lv) Units=km Length=0.009662940000000002 bus1=udt1602lv.1.2 bus2=udm6417.1.2 switch=n enabled=y phases=2 Linecode=1P_UG_AL_2/0_Converse_0_416_0_2_2

New Line.l(r:p1ulv49444-udm6419) Units=km Length=0.0163045 bus1=udm6419.1.2 bus2=p1ulv49444.1.2 switch=n enabled=y phases=2 Linecode=1P_UG_AL_4/0_Sweetbriar_0_416_0_2_2

New Line.l(r:udm6419-udt1602lv) Units=km Length=0.028989400000000002 bus1=udt1602lv.1.2 bus2=udm6419.1.2 switch=n enabled=y phases=2 Linecode=1P_UG_AL_4/0_Sweetbriar_0_416_0_2_2

New Line.l(r:p1ulv3414-udt1603lv) Units=km Length=0.0573844 bus1=udt1603lv.1.2 bus2=p1ulv3414.1.2 switch=n enabled=y phases=2 Linecode=1P_UG_AL_1/0_Brenau_0_416_0_2_2

New Line.l(r:p1ulv3417-udm6422) Units=km Length=0.0433312 bus1=udm6422.1.2 bus2=p1ulv3417.1.2 switch=n enabled=y phases=2 Linecode=1P_UG_AL_1/0_Brenau_0_416_0_2_2

New Line.l(r:udm6422-udt1605lv) Units=km Length=0.00891068 bus1=udt1605lv.1.2 bus2=udm6422.1.2 switch=n enabled=y phases=2 Linecode=1P_UG_AL_1/0_Brenau_0_416_0_2_2

New Line.l(r:p1ulv26531-udm6423) Units=km Length=0.0132384 bus1=udm6423.1.2 bus2=p1ulv26531.1.2 switch=n enabled=y phases=2 Linecode=1P_UG_AL_1/0_Brenau_0_416_0_2_2

New Line.l(r:udm6423-udt1605lv) Units=km Length=0.00892426 bus1=udt1605lv.1.2 bus2=udm6423.1.2 switch=n enabled=y phases=2 Linecode=1P_UG_AL_1/0_Brenau_0_416_0_2_2

New Line.l(r:p1ulv3421-udt1607lv) Units=km Length=0.019025900000000002 bus1=udt1607lv.1.2 bus2=p1ulv3421.1.2 switch=n enabled=y phases=2 Linecode=1P_OH_AL_2/0_Rucina_0_416_0_2_2

New Line.l(r:p1ulv45794-udm6426) Units=km Length=0.019864 bus1=udm6426.1.2 bus2=p1ulv45794.1.2 switch=n enabled=y phases=2 Linecode=1P_OH_AL_2/0_Rucina_0_416_0_2_2

New Line.l(r:p1ulv50652-udm6426) Units=km Length=0.0422304 bus1=udm6426.1.2 bus2=p1ulv50652.1.2 switch=n enabled=y phases=2 Linecode=1P_OH_AL_4/0_Zuzara_0_416_0_2_2

New Line.l(r:udm6426-udt1607lv) Units=km Length=0.0187431 bus1=udt1607lv.1.2 bus2=udm6426.1.2 switch=n enabled=y phases=2 Linecode=1P_OH_AL_2/0_Rucina_0_416_0_2_2

New Line.l(r:p1ulv3425-udm6434) Units=km Length=0.021222 bus1=udm6434.1.2 bus2=p1ulv3425.1.2 switch=n enabled=y phases=2 Linecode=1P_OH_AL_2/0_Rucina_0_416_0_2_2

New Line.l(r:udm6434-udt1611lv) Units=km Length=0.0565746 bus1=udt1611lv.1.2 bus2=udm6434.1.2 switch=n enabled=y phases=2 Linecode=1P_OH_AL_4/0_Zuzara_0_416_0_2_2

New Line.l(r:p1ulv24248-udm6435) Units=km Length=0.0147092 bus1=udm6435.1.2 bus2=p1ulv24248.1.2 switch=n enabled=y phases=2 Linecode=1P_OH_AL_2/0_Rucina_0_416_0_2_2

New Line.l(r:udm6435-udt1611lv) Units=km Length=0.0185723 bus1=udt1611lv.1.2 bus2=udm6435.1.2 switch=n enabled=y phases=2 Linecode=1P_OH_AL_2/0_Rucina_0_416_0_2_2

New Line.l(r:p1ulv41303-udt1612lv) Units=km Length=0.010417 bus1=udt1612lv.1.2 bus2=p1ulv41303.1.2 switch=n enabled=y phases=2 Linecode=1P_UG_AL_1/0_Brenau_0_416_0_2_2

New Line.l(r:p1ulv3426-udm6436) Units=km Length=0.010185900000000001 bus1=udm6436.1.2 bus2=p1ulv3426.1.2 switch=n enabled=y phases=2 Linecode=1P_UG_AL_1/0_Brenau_0_416_0_2_2

New Line.l(r:p1ulv49217-udm6440) Units=km Length=0.0136277 bus1=udm6440.1.2 bus2=p1ulv49217.1.2 switch=n enabled=y phases=2 Linecode=1P_UG_AL_1/0_Brenau_0_416_0_2_2

New Line.l(r:udm6436-udm6440) Units=km Length=0.010364000000000002 bus1=udm6436.1.2 bus2=udm6440.1.2 switch=n enabled=y phases=2 Linecode=1P_UG_AL_1/0_Brenau_0_416_0_2_2

New Line.l(r:udm6436-udt1612lv) Units=km Length=0.0105728 bus1=udt1612lv.1.2 bus2=udm6436.1.2 switch=n enabled=y phases=2 Linecode=1P_UG_AL_1/0_Brenau_0_416_0_2_2

New Line.l(r:p1ulv24246-udm6437) Units=km Length=0.0238863 bus1=udm6437.1.2 bus2=p1ulv24246.1.2 switch=n enabled=y phases=2 Linecode=1P_UG_AL_1/0_Brenau_0_416_0_2_2

New Line.l(r:p1ulv32783-udm6437) Units=km Length=0.01307 bus1=udm6437.1.2 bus2=p1ulv32783.1.2 switch=n enabled=y phases=2 Linecode=1P_UG_AL_1/0_Brenau_0_416_0_2_2

New Line.l(r:udm6437-udt1612lv) Units=km Length=0.0282524 bus1=udt1612lv.1.2 bus2=udm6437.1.2 switch=n enabled=y phases=2 Linecode=1P_UG_AL_2/0_Converse_0_416_0_2_2

New Line.l(r:p1ulv3427-udt1613lv) Units=km Length=0.00862629 bus1=udt1613lv.1.2 bus2=p1ulv3427.1.2 switch=n enabled=y phases=2 Linecode=1P_OH_AL_2/0_Rucina_0_416_0_2_2

New Line.l(r:p1ulv28705-udt1613lv) Units=km Length=0.0109151 bus1=udt1613lv.1.2 bus2=p1ulv28705.1.2 switch=n enabled=y phases=2 Linecode=1P_OH_AL_2/0_Rucina_0_416_0_2_2

New Line.l(r:p1ulv3429-udt1614lv) Units=km Length=0.0132101 bus1=udt1614lv.1.2 bus2=p1ulv3429.1.2 switch=n enabled=y phases=2 Linecode=1P_UG_AL_2/0_Converse_0_416_0_2_2

New Line.l(r:p1ulv3432-udm6447) Units=km Length=0.011957 bus1=udm6447.1.2 bus2=p1ulv3432.1.2 switch=n enabled=y phases=2 Linecode=1P_OH_AL_2/0_Rucina_0_416_0_2_2

New Line.l(r:udm6447-udt1617lv) Units=km Length=0.0338598 bus1=udt1617lv.1.2 bus2=udm6447.1.2 switch=n enabled=y phases=2 Linecode=1P_OH_AL_4/0_Zuzara_0_416_0_2_2

New Line.l(r:p1ulv35338-udm6448) Units=km Length=0.012399000000000002 bus1=udm6448.1.2 bus2=p1ulv35338.1.2 switch=n enabled=y phases=2 Linecode=1P_OH_AL_2/0_Rucina_0_416_0_2_2

New Line.l(r:udm6448-udt1617lv) Units=km Length=0.016832200000000002 bus1=udt1617lv.1.2 bus2=udm6448.1.2 switch=n enabled=y phases=2 Linecode=1P_OH_AL_2/0_Rucina_0_416_0_2_2
