New Load.load_p1ulv317 conn=wye bus1=p1ulv317.1.2 kV=0.2080002494301389 Vminpu=0.8 Vmaxpu=1.2 model=1 kW=14.5701 kvar=1.4393340932974013 Phases=2

New Load.load_p1ulv318 conn=wye bus1=p1ulv318.1.2 kV=0.2080002494301389 Vminpu=0.8 Vmaxpu=1.2 model=1 kW=14.7401 kvar=1.4701589170964355 Phases=2

New Load.load_p1ulv319 conn=wye bus1=p1ulv319.1.2 kV=0.2080002494301389 Vminpu=0.8 Vmaxpu=1.2 model=1 kW=12.4101 kvar=0.9995943979048163 Phases=2

New Load.load_p1ulv320 conn=wye bus1=p1ulv320.1.2 kV=0.2080002494301389 Vminpu=0.8 Vmaxpu=1.2 model=1 kW=14.7501 kvar=1.4683916649062767 Phases=2

New Load.load_p1ulv321 conn=wye bus1=p1ulv321.1.2 kV=0.2080002494301389 Vminpu=0.8 Vmaxpu=1.2 model=1 kW=7.21007 kvar=1.460290271871968 Phases=2

New Load.load_p1ulv322 conn=wye bus1=p1ulv321.1.2 kV=0.2080002494301389 Vminpu=0.8 Vmaxpu=1.2 model=1 kW=7.43007 kvar=1.5087400626168963 Phases=2

New Load.load_p1ulv323 conn=wye bus1=p1ulv323.1.2 kV=0.2080002494301389 Vminpu=0.8 Vmaxpu=1.2 model=1 kW=14.6101 kvar=1.4400367892861963 Phases=2

New Load.load_p1ulv324 conn=wye bus1=p1ulv324.1.2 kV=0.2080002494301389 Vminpu=0.8 Vmaxpu=1.2 model=1 kW=21.9001 kvar=1.4011189724808741 Phases=2

New Load.load_p1ulv1504 conn=wye bus1=p1ulv1504.1.2 kV=0.2080002494301389 Vminpu=0.8 Vmaxpu=1.2 model=1 kW=8.49008 kvar=1.7195368743181074 Phases=2

New Load.load_p1ulv1505 conn=wye bus1=p1ulv1505.1.2.3 kV=0.48 Vminpu=0.8 Vmaxpu=1.2 model=1 kW=25.150300000000005 kvar=5.106986232543399 Phases=3

New Load.load_p1ulv1506 conn=wye bus1=p1ulv1506.1.2.3 kV=0.48 Vminpu=0.8 Vmaxpu=1.2 model=1 kW=23.5702 kvar=4.786133242875609 Phases=3

New Load.load_p1ulv1507 conn=wye bus1=p1ulv1507.1.2.3 kV=0.48 Vminpu=0.8 Vmaxpu=1.2 model=1 kW=149.51099999999997 kvar=30.35950341005061 Phases=3

New Load.load_p1ulv1508 conn=wye bus1=p1ulv1508.1.2 kV=0.2080002494301389 Vminpu=0.8 Vmaxpu=1.2 model=1 kW=8.75009 kvar=1.7813547611863327 Phases=2

New Load.load_p1ulv1509 conn=wye bus1=p1ulv1509.1.2.3 kV=0.48 Vminpu=0.8 Vmaxpu=1.2 model=1 kW=36.24040000000001 kvar=7.35892708484057 Phases=3

New Load.load_p1ulv1510 conn=wye bus1=p1ulv1510.1.2.3 kV=0.48 Vminpu=0.8 Vmaxpu=1.2 model=1 kW=27.3503 kvar=5.553715285938207 Phases=3

New Load.load_p1ulv2819 conn=wye bus1=p1ulv2819.1.2.3 kV=0.48 Vminpu=0.8 Vmaxpu=1.2 model=1 kW=39.8104 kvar=8.083846503303963 Phases=3

New Load.load_p1ulv3357 conn=wye bus1=p1ulv3357.1.2 kV=0.2080002494301389 Vminpu=0.8 Vmaxpu=1.2 model=1 kW=4.17004 kvar=0.8489421946902781 Phases=2

New Load.load_p1ulv3358 conn=wye bus1=p1ulv3358.1.2 kV=0.2080002494301389 Vminpu=0.8 Vmaxpu=1.2 model=1 kW=3.84004 kvar=0.7797533791810017 Phases=2

New Load.load_p1ulv3359 conn=wye bus1=p1ulv3359.1.2 kV=0.2080002494301389 Vminpu=0.8 Vmaxpu=1.2 model=1 kW=12.7701 kvar=2.5930794021622985 Phases=2

New Load.load_p1ulv3360 conn=wye bus1=p1ulv3359.1.2 kV=0.2080002494301389 Vminpu=0.8 Vmaxpu=1.2 model=1 kW=4.43004 kvar=0.8995579889550643 Phases=2

New Load.load_p1ulv3362 conn=wye bus1=p1ulv3362.1.2 kV=0.2080002494301389 Vminpu=0.8 Vmaxpu=1.2 model=1 kW=4.86005 kvar=0.9894153325398525 Phases=2

New Load.load_p1ulv3366 conn=wye bus1=p1ulv3366.1.2.3 kV=0.48 Vminpu=0.8 Vmaxpu=1.2 model=1 kW=27.7103 kvar=5.6268164037664485 Phases=3

New Load.load_p1ulv3369 conn=wye bus1=p1ulv3369.1.2.3 kV=0.48 Vminpu=0.8 Vmaxpu=1.2 model=1 kW=58.74060000000001 kvar=11.927787560837793 Phases=3

New Load.load_p1ulv3370 conn=wye bus1=p1ulv3370.1.2.3 kV=0.48 Vminpu=0.8 Vmaxpu=1.2 model=1 kW=51.7105 kvar=10.500264870714679 Phases=3

New Load.load_p1ulv3371 conn=wye bus1=p1ulv3371.1.2.3 kV=0.48 Vminpu=0.8 Vmaxpu=1.2 model=1 kW=71.54070000000002 kvar=14.526958722819112 Phases=3

New Load.load_p1ulv3372 conn=wye bus1=p1ulv3372.1.2 kV=0.2080002494301389 Vminpu=0.8 Vmaxpu=1.2 model=1 kW=4.35004 kvar=0.8810345938741143 Phases=2

New Load.load_p1ulv3373 conn=wye bus1=p1ulv3373.1.2 kV=0.2080002494301389 Vminpu=0.8 Vmaxpu=1.2 model=1 kW=6.07006 kvar=1.2293985450459088 Phases=2

New Load.load_p1ulv3375 conn=wye bus1=p1ulv3375.1.2 kV=0.2080002494301389 Vminpu=0.8 Vmaxpu=1.2 model=1 kW=4.05004 kvar=0.8202741461167985 Phases=2

New Load.load_p1ulv3377 conn=wye bus1=p1ulv3377.1.2 kV=0.2080002494301389 Vminpu=0.8 Vmaxpu=1.2 model=1 kW=5.62006 kvar=1.141201856282742 Phases=2

New Load.load_p1ulv3380 conn=wye bus1=p1ulv3380.1.2 kV=0.2080002494301389 Vminpu=0.8 Vmaxpu=1.2 model=1 kW=3.86004 kvar=0.7797658839270477 Phases=2

New Load.load_p1ulv3381 conn=wye bus1=p1ulv3381.1.2 kV=0.2080002494301389 Vminpu=0.8 Vmaxpu=1.2 model=1 kW=3.64004 kvar=0.739141647054201 Phases=2

New Load.load_p1ulv3382 conn=wye bus1=p1ulv3382.1.2 kV=0.2080002494301389 Vminpu=0.8 Vmaxpu=1.2 model=1 kW=4.61005 kvar=0.9409239980998833 Phases=2

New Load.load_p1ulv3383 conn=wye bus1=p1ulv3383.1.2.3 kV=0.48 Vminpu=0.8 Vmaxpu=1.2 model=1 kW=23.4702 kvar=4.765827376812207 Phases=3

New Load.load_p1ulv3384 conn=wye bus1=p1ulv3384.1.2 kV=0.2080002494301389 Vminpu=0.8 Vmaxpu=1.2 model=1 kW=4.200040000000001 kvar=0.8506543699954566 Phases=2

New Load.load_p1ulv3385 conn=wye bus1=p1ulv3385.1.2 kV=0.2080002494301389 Vminpu=0.8 Vmaxpu=1.2 model=1 kW=4.21004 kvar=0.8592808470538134 Phases=2

New Load.load_p1ulv3386 conn=wye bus1=p1ulv3386.1.2 kV=0.2080002494301389 Vminpu=0.8 Vmaxpu=1.2 model=1 kW=10.1501 kvar=2.061065711301207 Phases=2

New Load.load_p1ulv3387 conn=wye bus1=p1ulv3387.1.2 kV=0.2080002494301389 Vminpu=0.8 Vmaxpu=1.2 model=1 kW=18.6502 kvar=3.787084632556307 Phases=2

New Load.load_p1ulv3388 conn=wye bus1=p1ulv3388.1.2 kV=0.2080002494301389 Vminpu=0.8 Vmaxpu=1.2 model=1 kW=11.180100000000001 kvar=2.2702161317542315 Phases=2

New Load.load_p1ulv3389 conn=wye bus1=p1ulv3389.1.2 kV=0.2080002494301389 Vminpu=0.8 Vmaxpu=1.2 model=1 kW=10.7301 kvar=2.178839734468929 Phases=2

New Load.load_p1ulv3390 conn=wye bus1=p1ulv3390.1.2 kV=0.2080002494301389 Vminpu=0.8 Vmaxpu=1.2 model=1 kW=6.49006 kvar=1.3212548992507473 Phases=2

New Load.load_p1ulv3391 conn=wye bus1=p1ulv3391.1.2 kV=0.2080002494301389 Vminpu=0.8 Vmaxpu=1.2 model=1 kW=6.51007 kvar=1.3185158937715642 Phases=2

New Load.load_p1ulv3392 conn=wye bus1=p1ulv3392.1.2 kV=0.2080002494301389 Vminpu=0.8 Vmaxpu=1.2 model=1 kW=4.2400400000000005 kvar=0.8609768434346036 Phases=2

New Load.load_p1ulv3393 conn=wye bus1=p1ulv3393.1.2 kV=0.2080002494301389 Vminpu=0.8 Vmaxpu=1.2 model=1 kW=5.27005 kvar=1.0701292944742342 Phases=2

New Load.load_p1ulv3394 conn=wye bus1=p1ulv3394.1.2 kV=0.2080002494301389 Vminpu=0.8 Vmaxpu=1.2 model=1 kW=5.36005 kvar=1.091205986189491 Phases=2

New Load.load_p1ulv3395 conn=wye bus1=p1ulv3395.1.2 kV=0.2080002494301389 Vminpu=0.8 Vmaxpu=1.2 model=1 kW=2.99003 kvar=0.6102734204701886 Phases=2

New Load.load_p1ulv3396 conn=wye bus1=p1ulv3396.1.2 kV=0.2080002494301389 Vminpu=0.8 Vmaxpu=1.2 model=1 kW=5.40005 kvar=1.0993492384814623 Phases=2

New Load.load_p1ulv3397 conn=wye bus1=p1ulv3397.1.2 kV=0.2080002494301389 Vminpu=0.8 Vmaxpu=1.2 model=1 kW=3.27003 kvar=0.660578085568534 Phases=2

New Load.load_p1ulv3398 conn=wye bus1=p1ulv3398.1.2 kV=0.2080002494301389 Vminpu=0.8 Vmaxpu=1.2 model=1 kW=4.450040000000001 kvar=0.898951662187625 Phases=2

New Load.load_p1ulv3399 conn=wye bus1=p1ulv3399.1.2 kV=0.2080002494301389 Vminpu=0.8 Vmaxpu=1.2 model=1 kW=4.83005 kvar=0.9807834837952725 Phases=2

New Load.load_p1ulv3400 conn=wye bus1=p1ulv3395.1.2 kV=0.2080002494301389 Vminpu=0.8 Vmaxpu=1.2 model=1 kW=4.46004 kvar=0.9009717601242447 Phases=2

New Load.load_p1ulv3401 conn=wye bus1=p1ulv3401.1.2 kV=0.2080002494301389 Vminpu=0.8 Vmaxpu=1.2 model=1 kW=7.44007 kvar=1.5107706492232365 Phases=2

New Load.load_p1ulv3402 conn=wye bus1=p1ulv3402.1.2 kV=0.2080002494301389 Vminpu=0.8 Vmaxpu=1.2 model=1 kW=4.11004 kvar=0.8410090147543001 Phases=2

New Load.load_p1ulv3403 conn=wye bus1=p1ulv3403.1.2 kV=0.2080002494301389 Vminpu=0.8 Vmaxpu=1.2 model=1 kW=3.44003 kvar=0.7003258045487328 Phases=2

New Load.load_p1ulv3404 conn=wye bus1=p1ulv3404.1.2 kV=0.2080002494301389 Vminpu=0.8 Vmaxpu=1.2 model=1 kW=3.7100400000000002 kvar=0.7494644148777485 Phases=2

New Load.load_p1ulv3405 conn=wye bus1=p1ulv3405.1.2 kV=0.2080002494301389 Vminpu=0.8 Vmaxpu=1.2 model=1 kW=4.66005 kvar=0.951129136852173 Phases=2

New Load.load_p1ulv3406 conn=wye bus1=p1ulv3406.1.2 kV=0.2080002494301389 Vminpu=0.8 Vmaxpu=1.2 model=1 kW=4.78005 kvar=0.9706305507635722 Phases=2

New Load.load_p1ulv3407 conn=wye bus1=p1ulv3407.1.2 kV=0.2080002494301389 Vminpu=0.8 Vmaxpu=1.2 model=1 kW=3.82004 kvar=0.7796807647859518 Phases=2

New Load.load_p1ulv3408 conn=wye bus1=p1ulv3408.1.2 kV=0.2080002494301389 Vminpu=0.8 Vmaxpu=1.2 model=1 kW=3.87004 kvar=0.7898859035382418 Phases=2

New Load.load_p1ulv3409 conn=wye bus1=p1ulv3409.1.2 kV=0.2080002494301389 Vminpu=0.8 Vmaxpu=1.2 model=1 kW=5.14005 kvar=1.0410391316499712 Phases=2

New Load.load_p1ulv3410 conn=wye bus1=p1ulv3410.1.2 kV=0.2080002494301389 Vminpu=0.8 Vmaxpu=1.2 model=1 kW=17.8402 kvar=3.6226071174427634 Phases=2

New Load.load_p1ulv3411 conn=wye bus1=p1ulv3411.1.2 kV=0.2080002494301389 Vminpu=0.8 Vmaxpu=1.2 model=1 kW=3.62004 kvar=0.7293785270672118 Phases=2

New Load.load_p1ulv3412 conn=wye bus1=p1ulv3412.1.2 kV=0.2080002494301389 Vminpu=0.8 Vmaxpu=1.2 model=1 kW=5.57006 kvar=1.131048923251042 Phases=2

New Load.load_p1ulv3413 conn=wye bus1=p1ulv3413.1.2 kV=0.2080002494301389 Vminpu=0.8 Vmaxpu=1.2 model=1 kW=5.68006 kvar=1.1504099629613984 Phases=2

New Load.load_p1ulv3414 conn=wye bus1=p1ulv3414.1.2 kV=0.2080002494301389 Vminpu=0.8 Vmaxpu=1.2 model=1 kW=2.62003 kvar=0.5306473197920009 Phases=2

New Load.load_p1ulv3415 conn=wye bus1=p1ulv3415.1.2 kV=0.2080002494301389 Vminpu=0.8 Vmaxpu=1.2 model=1 kW=3.7300400000000002 kvar=0.7593664194785962 Phases=2

New Load.load_p1ulv3416 conn=wye bus1=p1ulv3416.1.2.3 kV=0.48 Vminpu=0.8 Vmaxpu=1.2 model=1 kW=25.260300000000004 kvar=5.129322685213139 Phases=3

New Load.load_p1umv5 conn=wye bus1=p1umv5.1.2.3 kV=12.47 Vminpu=0.8 Vmaxpu=1.2 model=1 kW=1299.56 kvar=263.88691301352657 Phases=3

New Load.load_p1ulv3417 conn=wye bus1=p1ulv3417.1.2 kV=0.2080002494301389 Vminpu=0.8 Vmaxpu=1.2 model=1 kW=8.19008 kvar=1.6587764265607916 Phases=2

New Load.load_p1ulv3418 conn=wye bus1=p1ulv3418.1.2 kV=0.2080002494301389 Vminpu=0.8 Vmaxpu=1.2 model=1 kW=5.57006 kvar=1.131048923251042 Phases=2

New Load.load_p1ulv3419 conn=wye bus1=p1ulv3419.1.2 kV=0.2080002494301389 Vminpu=0.8 Vmaxpu=1.2 model=1 kW=3.2800300000000004 kvar=0.6694632252334703 Phases=2

New Load.load_p1ulv3420 conn=wye bus1=p1ulv3420.1.2.3 kV=0.48 Vminpu=0.8 Vmaxpu=1.2 model=1 kW=44.4104 kvar=9.017916342220383 Phases=3

New Load.load_p1ulv3421 conn=wye bus1=p1ulv3421.1.2 kV=0.2080002494301389 Vminpu=0.8 Vmaxpu=1.2 model=1 kW=4.36004 kvar=0.8898962633106831 Phases=2

New Load.load_p1ulv3422 conn=wye bus1=p1ulv3422.1.2.3 kV=0.48 Vminpu=0.8 Vmaxpu=1.2 model=1 kW=49.8405 kvar=10.120545175329092 Phases=3

New Load.load_p1ulv3423 conn=wye bus1=p1ulv3423.1.2.3 kV=0.48 Vminpu=0.8 Vmaxpu=1.2 model=1 kW=20.9502 kvar=4.254119552014517 Phases=3

New Load.load_p1ulv3424 conn=wye bus1=p1ulv3424.1.2.3 kV=0.48 Vminpu=0.8 Vmaxpu=1.2 model=1 kW=150.532 kvar=30.566826302557935 Phases=3

New Load.load_p1ulv3425 conn=wye bus1=p1ulv3425.1.2 kV=0.2080002494301389 Vminpu=0.8 Vmaxpu=1.2 model=1 kW=15.230200000000002 kvar=3.0926240131880123 Phases=2

New Load.load_p1ulv3426 conn=wye bus1=p1ulv3426.1.2 kV=0.2080002494301389 Vminpu=0.8 Vmaxpu=1.2 model=1 kW=3.62004 kvar=0.7407437090079797 Phases=2

New Load.load_p1ulv3427 conn=wye bus1=p1ulv3427.1.2 kV=0.2080002494301389 Vminpu=0.8 Vmaxpu=1.2 model=1 kW=8.33008 kvar=1.6914948877741063 Phases=2

New Load.load_p1ulv3428 conn=wye bus1=p1ulv3428.1.2.3 kV=0.48 Vminpu=0.8 Vmaxpu=1.2 model=1 kW=45.8705 kvar=9.314402292612092 Phases=3

New Load.load_p1ulv3429 conn=wye bus1=p1ulv3429.1.2 kV=0.2080002494301389 Vminpu=0.8 Vmaxpu=1.2 model=1 kW=10.3601 kvar=2.0982810493685604 Phases=2

New Load.load_p1ulv3430 conn=wye bus1=p1ulv3430.1.2.3 kV=0.48 Vminpu=0.8 Vmaxpu=1.2 model=1 kW=85.7409 kvar=17.4104323155541 Phases=3

New Load.load_p1ulv3431 conn=wye bus1=p1ulv3431.1.2.3 kV=0.48 Vminpu=0.8 Vmaxpu=1.2 model=1 kW=200.192 kvar=40.65071938964259 Phases=3

New Load.load_p1ulv3432 conn=wye bus1=p1ulv3432.1.2 kV=0.2080002494301389 Vminpu=0.8 Vmaxpu=1.2 model=1 kW=3.90004 kvar=0.7898939222381405 Phases=2

New Load.load_p1ulv3433 conn=wye bus1=p1ulv3433.1.2.3 kV=0.48 Vminpu=0.8 Vmaxpu=1.2 model=1 kW=57.080600000000004 kvar=11.590710184185347 Phases=3

New Load.load_p1ulv4781 conn=wye bus1=p1ulv4781.1.2 kV=0.2080002494301389 Vminpu=0.8 Vmaxpu=1.2 model=1 kW=2.83003 kvar=0.580558608517704 Phases=2

New Load.load_p1ulv4782 conn=wye bus1=p1ulv4782.1.2 kV=0.2080002494301389 Vminpu=0.8 Vmaxpu=1.2 model=1 kW=4.80005 kvar=0.9696571100672596 Phases=2

New Load.load_p1ulv4784 conn=wye bus1=p1ulv4784.1.2 kV=0.2080002494301389 Vminpu=0.8 Vmaxpu=1.2 model=1 kW=3.20003 kvar=0.6497938057886328 Phases=2

New Load.load_p1ulv4785 conn=wye bus1=p1ulv4785.1.2 kV=0.2080002494301389 Vminpu=0.8 Vmaxpu=1.2 model=1 kW=2.75003 kvar=0.5598547025122315 Phases=2

New Load.load_p1ulv4786 conn=wye bus1=p1ulv4786.1.2 kV=0.2080002494301389 Vminpu=0.8 Vmaxpu=1.2 model=1 kW=4.14004 kvar=0.8406709773712032 Phases=2

New Load.load_p1ulv4787 conn=wye bus1=p1ulv4787.1.2 kV=0.2080002494301389 Vminpu=0.8 Vmaxpu=1.2 model=1 kW=3.49003 kvar=0.7105048699136965 Phases=2

New Load.load_p1ulv4788 conn=wye bus1=p1ulv4788.1.2 kV=0.2080002494301389 Vminpu=0.8 Vmaxpu=1.2 model=1 kW=1.89002 kvar=0.37981104658211823 Phases=2

New Load.load_p1ulv4789 conn=wye bus1=p1ulv4789.1.2 kV=0.2080002494301389 Vminpu=0.8 Vmaxpu=1.2 model=1 kW=3.34003 kvar=0.679967673818805 Phases=2

New Load.load_p1ulv4791 conn=wye bus1=p1ulv4791.1.2 kV=0.2080002494301389 Vminpu=0.8 Vmaxpu=1.2 model=1 kW=1.7200200000000003 kvar=0.3501639201809029 Phases=2

New Load.load_p1ulv4792 conn=wye bus1=p1ulv4792.1.2 kV=0.2080002494301389 Vminpu=0.8 Vmaxpu=1.2 model=1 kW=3.33003 kvar=0.6796683639857601 Phases=2

New Load.load_p1ulv6110 conn=wye bus1=p1ulv6110.1.2 kV=0.2080002494301389 Vminpu=0.8 Vmaxpu=1.2 model=1 kW=4.200040000000001 kvar=0.8506543699954566 Phases=2

New Load.load_p1ulv6111 conn=wye bus1=p1ulv6111.1.2 kV=0.2080002494301389 Vminpu=0.8 Vmaxpu=1.2 model=1 kW=4.07004 kvar=0.8307064585474014 Phases=2

New Load.load_p1ulv6116 conn=wye bus1=p1ulv6116.1.2.3 kV=0.48 Vminpu=0.8 Vmaxpu=1.2 model=1 kW=55.61059999999999 kvar=11.29221395305336 Phases=3

New Load.load_p1ulv6119 conn=wye bus1=p1ulv6119.1.2 kV=0.2080002494301389 Vminpu=0.8 Vmaxpu=1.2 model=1 kW=5.16005 kvar=1.0504897247296356 Phases=2

New Load.load_p1ulv6121 conn=wye bus1=p1ulv6121.1.2 kV=0.2080002494301389 Vminpu=0.8 Vmaxpu=1.2 model=1 kW=2.99003 kvar=0.6102734204701886 Phases=2

New Load.load_p1ulv6122 conn=wye bus1=p1ulv6122.1.2 kV=0.2080002494301389 Vminpu=0.8 Vmaxpu=1.2 model=1 kW=9.02009 kvar=1.8316073941981759 Phases=2

New Load.load_p1ulv6123 conn=wye bus1=p1ulv6123.1.2 kV=0.2080002494301389 Vminpu=0.8 Vmaxpu=1.2 model=1 kW=4.03004 kvar=0.8204408116683792 Phases=2

New Load.load_p1ulv6129 conn=wye bus1=p1ulv6129.1.2 kV=0.2080002494301389 Vminpu=0.8 Vmaxpu=1.2 model=1 kW=3.99004 kvar=0.8102121782761024 Phases=2

New Load.load_p1ulv6130 conn=wye bus1=p1ulv6130.1.2 kV=0.2080002494301389 Vminpu=0.8 Vmaxpu=1.2 model=1 kW=4.10004 kvar=0.8304008874096844 Phases=2

New Load.load_p1ulv6131 conn=wye bus1=p1ulv6131.1.2 kV=0.2080002494301389 Vminpu=0.8 Vmaxpu=1.2 model=1 kW=3.43003 kvar=0.70007864149034 Phases=2

New Load.load_p1ulv6133 conn=wye bus1=p1ulv6133.1.2 kV=0.2080002494301389 Vminpu=0.8 Vmaxpu=1.2 model=1 kW=3.45003 kvar=0.7005584709471337 Phases=2

New Load.load_p1ulv6134 conn=wye bus1=p1ulv6134.1.2 kV=0.2080002494301389 Vminpu=0.8 Vmaxpu=1.2 model=1 kW=4.33004 kvar=0.879252122891664 Phases=2

New Load.load_p1ulv6135 conn=wye bus1=p1ulv6129.1.2 kV=0.2080002494301389 Vminpu=0.8 Vmaxpu=1.2 model=1 kW=4.08004 kvar=0.8306198770333432 Phases=2

New Load.load_p1ulv6137 conn=wye bus1=p1ulv6130.1.2 kV=0.2080002494301389 Vminpu=0.8 Vmaxpu=1.2 model=1 kW=4.71005 kvar=0.9588781364449609 Phases=2

New Load.load_p1ulv6141 conn=wye bus1=p1ulv6141.1.2 kV=0.2080002494301389 Vminpu=0.8 Vmaxpu=1.2 model=1 kW=4.36004 kvar=0.8807707807580453 Phases=2

New Load.load_p1ulv9156 conn=wye bus1=p1ulv9156.1.2.3 kV=0.48 Vminpu=0.8 Vmaxpu=1.2 model=1 kW=28.5203 kvar=9.38428598474861 Phases=3

New Load.load_p1ulv10867 conn=wye bus1=p1ulv10867.1.2.3 kV=0.48 Vminpu=0.8 Vmaxpu=1.2 model=1 kW=63.39059999999999 kvar=12.87201033278591 Phases=3

New Load.load_p1ulv16465 conn=wye bus1=p1ulv16465.1.2 kV=0.2080002494301389 Vminpu=0.8 Vmaxpu=1.2 model=1 kW=4.4900400000000005 kvar=0.9093894694941951 Phases=2

New Load.load_p1ulv19320 conn=wye bus1=p1ulv19320.1.2 kV=0.2080002494301389 Vminpu=0.8 Vmaxpu=1.2 model=1 kW=3.66004 kvar=0.7393639251946486 Phases=2

New Load.load_p1ulv19322 conn=wye bus1=p1ulv19322.1.2 kV=0.2080002494301389 Vminpu=0.8 Vmaxpu=1.2 model=1 kW=4.21004 kvar=0.850469311708746 Phases=2

New Load.load_p1ulv19325 conn=wye bus1=p1ulv19325.1.2 kV=0.2080002494301389 Vminpu=0.8 Vmaxpu=1.2 model=1 kW=5.05005 kvar=1.0201595584827583 Phases=2

New Load.load_p1ulv19337 conn=wye bus1=p1ulv19337.1.2 kV=0.2080002494301389 Vminpu=0.8 Vmaxpu=1.2 model=1 kW=3.82004 kvar=0.7796807647859518 Phases=2

New Load.load_p1ulv19338 conn=wye bus1=p1ulv19338.1.2 kV=0.2080002494301389 Vminpu=0.8 Vmaxpu=1.2 model=1 kW=2.92003 kvar=0.5898746577868357 Phases=2

New Load.load_p1ulv19339 conn=wye bus1=p1ulv19339.1.2 kV=0.2080002494301389 Vminpu=0.8 Vmaxpu=1.2 model=1 kW=3.17003 kvar=0.6403771062023346 Phases=2

New Load.load_p1ulv19340 conn=wye bus1=p1ulv19340.1.2.3 kV=0.48 Vminpu=0.8 Vmaxpu=1.2 model=1 kW=21.7302 kvar=4.412505307309041 Phases=3

New Load.load_p1ulv19341 conn=wye bus1=p1ulv19341.1.2 kV=0.2080002494301389 Vminpu=0.8 Vmaxpu=1.2 model=1 kW=3.47003 kvar=0.6991539790386396 Phases=2

New Load.load_p1ulv19342 conn=wye bus1=p1ulv19342.1.2 kV=0.2080002494301389 Vminpu=0.8 Vmaxpu=1.2 model=1 kW=16.8302 kvar=3.417517870202419 Phases=2

New Load.load_p1ulv19343 conn=wye bus1=p1ulv19343.1.2 kV=0.2080002494301389 Vminpu=0.8 Vmaxpu=1.2 model=1 kW=2.19002 kvar=0.450399940242794 Phases=2

New Load.load_p1ulv19344 conn=wye bus1=p1ulv19344.1.2 kV=0.2080002494301389 Vminpu=0.8 Vmaxpu=1.2 model=1 kW=1.88002 kvar=0.37978245228042407 Phases=2

New Load.load_p1ulv19345 conn=wye bus1=p1ulv19345.1.2 kV=0.2080002494301389 Vminpu=0.8 Vmaxpu=1.2 model=1 kW=3.95004 kvar=0.8000206635310265 Phases=2

New Load.load_p1ulv24204 conn=wye bus1=p1ulv24204.1.2.3 kV=0.48 Vminpu=0.8 Vmaxpu=1.2 model=1 kW=101.581 kvar=20.626901805862794 Phases=3

New Load.load_p1ulv24205 conn=wye bus1=p1ulv24205.1.2.3 kV=0.48 Vminpu=0.8 Vmaxpu=1.2 model=1 kW=46.7305 kvar=9.489032740757338 Phases=3

New Load.load_p1ulv24206 conn=wye bus1=p1ulv24206.1.2.3 kV=0.48 Vminpu=0.8 Vmaxpu=1.2 model=1 kW=22.2202 kvar=4.5120040510197015 Phases=3

New Load.load_p1ulv24218 conn=wye bus1=p1ulv24218.1.2 kV=0.2080002494301389 Vminpu=0.8 Vmaxpu=1.2 model=1 kW=3.24003 kvar=0.6596095430888772 Phases=2

New Load.load_p1ulv24219 conn=wye bus1=p1ulv24219.1.2 kV=0.2080002494301389 Vminpu=0.8 Vmaxpu=1.2 model=1 kW=3.23003 kvar=0.6592580864811803 Phases=2

New Load.load_p1ulv24220 conn=wye bus1=p1ulv24220.1.2 kV=0.2080002494301389 Vminpu=0.8 Vmaxpu=1.2 model=1 kW=10.5201 kvar=3.461521337017978 Phases=2

New Load.load_p1ulv24221 conn=wye bus1=p1ulv24220.1.2 kV=0.2080002494301389 Vminpu=0.8 Vmaxpu=1.2 model=1 kW=10.0001 kvar=3.290421148307857 Phases=2

New Load.load_p1ulv24222 conn=wye bus1=p1ulv24222.1.2 kV=0.2080002494301389 Vminpu=0.8 Vmaxpu=1.2 model=1 kW=14.250100000000002 kvar=2.8936062199006245 Phases=2

New Load.load_p1ulv24223 conn=wye bus1=p1ulv24223.1.2 kV=0.2080002494301389 Vminpu=0.8 Vmaxpu=1.2 model=1 kW=5.72006 kvar=1.8800928026694081 Phases=2

New Load.load_p1ulv24224 conn=wye bus1=p1ulv24224.1.2.3 kV=0.48 Vminpu=0.8 Vmaxpu=1.2 model=1 kW=44.7204 kvar=9.080864527016926 Phases=3

New Load.load_p1ulv24230 conn=wye bus1=p1ulv24230.1.2.3 kV=0.48 Vminpu=0.8 Vmaxpu=1.2 model=1 kW=43.6104 kvar=8.855469413713179 Phases=3

New Load.load_p1ulv24231 conn=wye bus1=p1ulv24231.1.2.3 kV=0.48 Vminpu=0.8 Vmaxpu=1.2 model=1 kW=30.810300000000005 kvar=6.256298251731863 Phases=3

New Load.load_p1ulv24232 conn=wye bus1=p1ulv24232.1.2 kV=0.2080002494301389 Vminpu=0.8 Vmaxpu=1.2 model=1 kW=11.9601 kvar=2.4286018870487553 Phases=2

New Load.load_p1ulv24233 conn=wye bus1=p1ulv24233.1.2 kV=0.2080002494301389 Vminpu=0.8 Vmaxpu=1.2 model=1 kW=4.14004 kvar=1.3592956687066866 Phases=2

New Load.load_p1ulv24234 conn=wye bus1=p1ulv24234.1.2 kV=0.2080002494301389 Vminpu=0.8 Vmaxpu=1.2 model=1 kW=10.8501 kvar=2.1975231140388423 Phases=2

New Load.load_p1ulv24235 conn=wye bus1=p1ulv24235.1.2 kV=0.2080002494301389 Vminpu=0.8 Vmaxpu=1.2 model=1 kW=8.620090000000001 kvar=1.750383929944574 Phases=2

New Load.load_p1ulv24236 conn=wye bus1=p1ulv24236.1.2.3 kV=0.48 Vminpu=0.8 Vmaxpu=1.2 model=1 kW=28.5203 kvar=5.791293918879993 Phases=3

New Load.load_p1ulv24237 conn=wye bus1=p1ulv24237.1.2 kV=0.2080002494301389 Vminpu=0.8 Vmaxpu=1.2 model=1 kW=4.630050000000001 kvar=0.9401717516684716 Phases=2

New Load.load_p1umv35 conn=wye bus1=p1umv35.1.2.3 kV=12.47 Vminpu=0.8 Vmaxpu=1.2 model=1 kW=1341.13 kvar=272.3280615360822 Phases=3

New Load.load_p1ulv24238 conn=wye bus1=p1ulv24238.1.2.3 kV=0.48 Vminpu=0.8 Vmaxpu=1.2 model=1 kW=89.67089999999999 kvar=18.208452851845735 Phases=3

New Load.load_p1ulv24239 conn=wye bus1=p1ulv24239.1.2.3 kV=0.48 Vminpu=0.8 Vmaxpu=1.2 model=1 kW=20.7602 kvar=4.204663491771429 Phases=3

New Load.load_p1ulv24240 conn=wye bus1=p1ulv24240.1.2.3 kV=0.48 Vminpu=0.8 Vmaxpu=1.2 model=1 kW=33.4303 kvar=6.788311942592955 Phases=3

New Load.load_p1ulv24241 conn=wye bus1=p1ulv24241.1.2.3 kV=0.48 Vminpu=0.8 Vmaxpu=1.2 model=1 kW=28.980300000000003 kvar=5.884700902771635 Phases=3

New Load.load_p1ulv24242 conn=wye bus1=p1ulv24241.1.2.3 kV=0.48 Vminpu=0.8 Vmaxpu=1.2 model=1 kW=26.9303 kvar=5.468430648471926 Phases=3

New Load.load_p1ulv24243 conn=wye bus1=p1ulv24243.1.2 kV=0.2080002494301389 Vminpu=0.8 Vmaxpu=1.2 model=1 kW=3.3200300000000005 kvar=0.6793547408917479 Phases=2

New Load.load_p1ulv24244 conn=wye bus1=p1ulv24244.1.2 kV=0.2080002494301389 Vminpu=0.8 Vmaxpu=1.2 model=1 kW=11.2501 kvar=2.278537044381931 Phases=2

New Load.load_p1ulv24245 conn=wye bus1=p1ulv24245.1.2 kV=0.2080002494301389 Vminpu=0.8 Vmaxpu=1.2 model=1 kW=10.6401 kvar=2.160564455011869 Phases=2

New Load.load_p1ulv24246 conn=wye bus1=p1ulv24246.1.2 kV=0.2080002494301389 Vminpu=0.8 Vmaxpu=1.2 model=1 kW=6.29006 kvar=1.280538637790892 Phases=2

New Load.load_p1ulv24247 conn=wye bus1=p1ulv24247.1.2 kV=0.2080002494301389 Vminpu=0.8 Vmaxpu=1.2 model=1 kW=5.54006 kvar=1.1307416199202263 Phases=2

New Load.load_p1ulv24248 conn=wye bus1=p1ulv24248.1.2 kV=0.2080002494301389 Vminpu=0.8 Vmaxpu=1.2 model=1 kW=7.73008 kvar=1.5696596913937038 Phases=2

New Load.load_p1ulv26003 conn=wye bus1=p1ulv26003.1.2 kV=0.2080002494301389 Vminpu=0.8 Vmaxpu=1.2 model=1 kW=2.91003 kvar=0.5893824192907394 Phases=2

New Load.load_p1ulv26005 conn=wye bus1=p1ulv26005.1.2 kV=0.2080002494301389 Vminpu=0.8 Vmaxpu=1.2 model=1 kW=5.27005 kvar=1.0701292944742342 Phases=2

New Load.load_p1ulv26071 conn=wye bus1=p1ulv26071.1.2 kV=0.2080002494301389 Vminpu=0.8 Vmaxpu=1.2 model=1 kW=4.14004 kvar=0.8406709773712032 Phases=2

New Load.load_p1ulv26114 conn=wye bus1=p1ulv26114.1.2.3 kV=0.48 Vminpu=0.8 Vmaxpu=1.2 model=1 kW=46.72050000000001 kvar=9.487002154150998 Phases=3

New Load.load_p1ulv26206 conn=wye bus1=p1ulv26206.1.2 kV=0.2080002494301389 Vminpu=0.8 Vmaxpu=1.2 model=1 kW=3.0100300000000004 kvar=0.6096359018765115 Phases=2

New Load.load_p1ulv26209 conn=wye bus1=p1ulv26209.1.2 kV=0.2080002494301389 Vminpu=0.8 Vmaxpu=1.2 model=1 kW=8.96009 kvar=1.8194238745601352 Phases=2

New Load.load_p1ulv26312 conn=wye bus1=p1ulv26312.1.2 kV=0.2080002494301389 Vminpu=0.8 Vmaxpu=1.2 model=1 kW=6.990070000000001 kvar=1.4193942519379346 Phases=2

New Load.load_p1ulv26341 conn=wye bus1=p1ulv26341.1.2 kV=0.2080002494301389 Vminpu=0.8 Vmaxpu=1.2 model=1 kW=7.02007 kvar=1.4218086549590012 Phases=2

New Load.load_p1ulv26388 conn=wye bus1=p1ulv26388.1.2 kV=0.2080002494301389 Vminpu=0.8 Vmaxpu=1.2 model=1 kW=5.91006 kvar=1.200088867866603 Phases=2

New Load.load_p1ulv26408 conn=wye bus1=p1ulv26408.1.2 kV=0.2080002494301389 Vminpu=0.8 Vmaxpu=1.2 model=1 kW=3.29003 kvar=0.6697886084538411 Phases=2

New Load.load_p1ulv26459 conn=wye bus1=p1ulv26459.1.2 kV=0.2080002494301389 Vminpu=0.8 Vmaxpu=1.2 model=1 kW=4.79005 kvar=0.9701519425997696 Phases=2

New Load.load_p1ulv26496 conn=wye bus1=p1ulv26496.1.2.3 kV=0.48 Vminpu=0.8 Vmaxpu=1.2 model=1 kW=42.7804 kvar=8.686930725386958 Phases=3

New Load.load_p1ulv26502 conn=wye bus1=p1ulv26502.1.2 kV=0.2080002494301389 Vminpu=0.8 Vmaxpu=1.2 model=1 kW=11.090100000000001 kvar=2.251940852297171 Phases=2

New Load.load_p1ulv26531 conn=wye bus1=p1ulv26531.1.2 kV=0.2080002494301389 Vminpu=0.8 Vmaxpu=1.2 model=1 kW=3.62004 kvar=0.7293785270672118 Phases=2

New Load.load_p1ulv26573 conn=wye bus1=p1ulv26573.1.2 kV=0.2080002494301389 Vminpu=0.8 Vmaxpu=1.2 model=1 kW=3.62004 kvar=0.7293785270672118 Phases=2

New Load.load_p1ulv26620 conn=wye bus1=p1ulv26620.1.2 kV=0.2080002494301389 Vminpu=0.8 Vmaxpu=1.2 model=1 kW=3.27003 kvar=0.660578085568534 Phases=2

New Load.load_p1ulv26688 conn=wye bus1=p1ulv26688.1.2.3 kV=0.48 Vminpu=0.8 Vmaxpu=1.2 model=1 kW=48.0805 kvar=9.763161932613242 Phases=3

New Load.load_p1ulv26750 conn=wye bus1=p1ulv26750.1.2 kV=0.2080002494301389 Vminpu=0.8 Vmaxpu=1.2 model=1 kW=7.10007 kvar=1.4417307046076748 Phases=2

New Load.load_p1ulv26903 conn=wye bus1=p1ulv26903.1.2 kV=0.2080002494301389 Vminpu=0.8 Vmaxpu=1.2 model=1 kW=4.75005 kvar=0.95955662038416 Phases=2

New Load.load_p1ulv26909 conn=wye bus1=p1ulv26909.1.2 kV=0.2080002494301389 Vminpu=0.8 Vmaxpu=1.2 model=1 kW=16.0002 kvar=3.2489791818761953 Phases=2

New Load.load_p1ulv26978 conn=wye bus1=p1ulv26978.1.2 kV=0.2080002494301389 Vminpu=0.8 Vmaxpu=1.2 model=1 kW=3.85004 kvar=0.7797671809452545 Phases=2

New Load.load_p1ulv26998 conn=wye bus1=p1ulv26998.1.2 kV=0.2080002494301389 Vminpu=0.8 Vmaxpu=1.2 model=1 kW=1.92002 kvar=0.38987668959050087 Phases=2

New Load.load_p1ulv27002 conn=wye bus1=p1ulv27002.1.2 kV=0.2080002494301389 Vminpu=0.8 Vmaxpu=1.2 model=1 kW=3.7100400000000002 kvar=0.7494644148777485 Phases=2

New Load.load_p1ulv27121 conn=wye bus1=p1ulv27121.1.2 kV=0.2080002494301389 Vminpu=0.8 Vmaxpu=1.2 model=1 kW=14.500100000000002 kvar=2.936775228419519 Phases=2

New Load.load_p1ulv27197 conn=wye bus1=p1ulv27197.1.2 kV=0.2080002494301389 Vminpu=0.8 Vmaxpu=1.2 model=1 kW=15.230200000000002 kvar=3.0926240131880123 Phases=2

New Load.load_p1ulv27266 conn=wye bus1=p1ulv27266.1.2 kV=0.2080002494301389 Vminpu=0.8 Vmaxpu=1.2 model=1 kW=2.70003 kvar=0.5496756371472675 Phases=2

New Load.load_p1ulv27291 conn=wye bus1=p1ulv27291.1.2 kV=0.2080002494301389 Vminpu=0.8 Vmaxpu=1.2 model=1 kW=3.56004 kvar=0.7191629458284491 Phases=2

New Load.load_p1ulv27317 conn=wye bus1=p1ulv27317.1.2 kV=0.2080002494301389 Vminpu=0.8 Vmaxpu=1.2 model=1 kW=14.750100000000002 kvar=2.987408934883949 Phases=2

New Load.load_p1ulv27321 conn=wye bus1=p1ulv27321.1.2 kV=0.2080002494301389 Vminpu=0.8 Vmaxpu=1.2 model=1 kW=2.19002 kvar=0.44009787633769515 Phases=2

New Load.load_p1ulv27379 conn=wye bus1=p1ulv27379.1.2 kV=0.2080002494301389 Vminpu=0.8 Vmaxpu=1.2 model=1 kW=3.99004 kvar=0.8102121782761024 Phases=2

New Load.load_p1ulv27653 conn=wye bus1=p1ulv27653.1.2 kV=0.2080002494301389 Vminpu=0.8 Vmaxpu=1.2 model=1 kW=2.3700200000000002 kvar=0.4800115879793125 Phases=2

New Load.load_p1ulv27788 conn=wye bus1=p1ulv27788.1.2.3 kV=0.48 Vminpu=0.8 Vmaxpu=1.2 model=1 kW=60.24060000000001 kvar=12.232375551788799 Phases=3

New Load.load_p1ulv27791 conn=wye bus1=p1ulv27791.1.2 kV=0.2080002494301389 Vminpu=0.8 Vmaxpu=1.2 model=1 kW=5.54006 kvar=1.1191463774750727 Phases=2

New Load.load_p1ulv27902 conn=wye bus1=p1ulv27902.1.2 kV=0.2080002494301389 Vminpu=0.8 Vmaxpu=1.2 model=1 kW=4.02004 kvar=0.8205013197951115 Phases=2

New Load.load_p1ulv27971 conn=wye bus1=p1ulv27971.1.2.3 kV=0.48 Vminpu=0.8 Vmaxpu=1.2 model=1 kW=43.7704 kvar=8.887958799414621 Phases=3

New Load.load_p1ulv27994 conn=wye bus1=p1ulv27994.1.2 kV=0.2080002494301389 Vminpu=0.8 Vmaxpu=1.2 model=1 kW=11.1901 kvar=2.272246718360571 Phases=2

New Load.load_p1ulv28205 conn=wye bus1=p1ulv28205.1.2 kV=0.2080002494301389 Vminpu=0.8 Vmaxpu=1.2 model=1 kW=3.45003 kvar=0.7005584709471337 Phases=2

New Load.load_p1ulv28302 conn=wye bus1=p1ulv28302.1.2 kV=0.2080002494301389 Vminpu=0.8 Vmaxpu=1.2 model=1 kW=5.80006 kvar=1.1807837972142463 Phases=2

New Load.load_p1ulv28348 conn=wye bus1=p1ulv28348.1.2 kV=0.2080002494301389 Vminpu=0.8 Vmaxpu=1.2 model=1 kW=16.0002 kvar=3.2489791818761953 Phases=2

New Load.load_p1ulv28366 conn=wye bus1=p1ulv28366.1.2 kV=0.2080002494301389 Vminpu=0.8 Vmaxpu=1.2 model=1 kW=13.2701 kvar=2.6876573926145237 Phases=2

New Load.load_p1ulv28370 conn=wye bus1=p1ulv28370.1.2 kV=0.2080002494301389 Vminpu=0.8 Vmaxpu=1.2 model=1 kW=1.38001 kvar=0.28022298226153225 Phases=2

New Load.load_p1ulv28438 conn=wye bus1=p1ulv28438.1.2 kV=0.2080002494301389 Vminpu=0.8 Vmaxpu=1.2 model=1 kW=5.36005 kvar=1.091205986189491 Phases=2

New Load.load_p1ulv28568 conn=wye bus1=p1ulv28568.1.2.3 kV=0.48 Vminpu=0.8 Vmaxpu=1.2 model=1 kW=60.9106 kvar=12.36842485441358 Phases=3

New Load.load_p1ulv28590 conn=wye bus1=p1ulv28590.1.2 kV=0.2080002494301389 Vminpu=0.8 Vmaxpu=1.2 model=1 kW=4.44004 kvar=0.8992627282013091 Phases=2

New Load.load_p1ulv28650 conn=wye bus1=p1ulv28650.1.2 kV=0.2080002494301389 Vminpu=0.8 Vmaxpu=1.2 model=1 kW=2.88003 kvar=0.5802786818127376 Phases=2

New Load.load_p1ulv28674 conn=wye bus1=p1ulv28674.1.2.3 kV=0.48 Vminpu=0.8 Vmaxpu=1.2 model=1 kW=45.52049999999999 kvar=9.243331761390191 Phases=3

New Load.load_p1ulv28705 conn=wye bus1=p1ulv28705.1.2 kV=0.2080002494301389 Vminpu=0.8 Vmaxpu=1.2 model=1 kW=3.48003 kvar=0.71028378024263 Phases=2
