New Line.l(r:p1ulv19990-udt1677lv) Units=km Length=0.0247771 bus1=udt1677lv.1.2 bus2=p1ulv19990.1.2 switch=n enabled=y phases=2 Linecode=1P_OH_AL_2/0_Rucina_0_416_0_2_2

New Line.l(r:p1ulv3558-udm6678) Units=km Length=0.029042400000000003 bus1=udm6678.1.2 bus2=p1ulv3558.1.2 switch=n enabled=y phases=2 Linecode=1P_OH_AL_4/0_Zuzara_0_416_0_2_2

New Line.l(r:udm6678-udt1677lv) Units=km Length=0.017434600000000005 bus1=udt1677lv.1.2 bus2=udm6678.1.2 switch=n enabled=y phases=2 Linecode=1P_OH_AL_2/0_Rucina_0_416_0_2_2

New Line.l(r:p1ulv16542-udm6679) Units=km Length=0.023595 bus1=udm6679.1.2 bus2=p1ulv16542.1.2 switch=n enabled=y phases=2 Linecode=1P_OH_AL_2/0_Rucina_0_416_0_2_2

New Line.l(r:udm6679-udt1677lv) Units=km Length=0.0174444 bus1=udt1677lv.1.2 bus2=udm6679.1.2 switch=n enabled=y phases=2 Linecode=1P_OH_AL_2/0_Rucina_0_416_0_2_2

New Line.l(r:p1ulv3559-udt1678lv) Units=km Length=0.0155065 bus1=udt1678lv.1.2 bus2=p1ulv3559.1.2 switch=n enabled=y phases=2 Linecode=1P_OH_AL_2/0_Rucina_0_416_0_2_2

New Line.l(r:p1ulv21552-udt1678lv) Units=km Length=0.0279711 bus1=udt1678lv.1.2 bus2=p1ulv21552.1.2 switch=n enabled=y phases=2 Linecode=1P_OH_AL_4/0_Zuzara_0_416_0_2_2

New Line.l(r:p1ulv15674-udm6682) Units=km Length=0.0252862 bus1=udm6682.1.2 bus2=p1ulv15674.1.2 switch=n enabled=y phases=2 Linecode=1P_OH_AL_2/0_Rucina_0_416_0_2_2

New Line.l(r:udm6682-udt1678lv) Units=km Length=0.0183409 bus1=udt1678lv.1.2 bus2=udm6682.1.2 switch=n enabled=y phases=2 Linecode=1P_OH_AL_2/0_Rucina_0_416_0_2_2

New Line.l(r:p1ulv24932-udm6684) Units=km Length=0.0157446 bus1=udm6684.1.2 bus2=p1ulv24932.1.2 switch=n enabled=y phases=2 Linecode=1P_OH_AL_2/0_Rucina_0_416_0_2_2

New Line.l(r:p1ulv29208-udm6684) Units=km Length=0.0268442 bus1=udm6684.1.2 bus2=p1ulv29208.1.2 switch=n enabled=y phases=2 Linecode=1P_OH_AL_2/0_Rucina_0_416_0_2_2

New Line.l(r:udm6684-udt1678lv) Units=km Length=0.0183409 bus1=udt1678lv.1.2 bus2=udm6684.1.2 switch=n enabled=y phases=2 Linecode=1P_OH_AL_2/0_Rucina_0_416_0_2_2

New Line.l(r:p1ulv3560-udt1679lv) Units=km Length=0.029371 bus1=udt1679lv.1.2 bus2=p1ulv3560.1.2 switch=n enabled=y phases=2 Linecode=1P_OH_AL_4/0_Zuzara_0_416_0_2_2

New Line.l(r:p1ulv12475-udt1679lv) Units=km Length=0.0356019 bus1=udt1679lv.1.2 bus2=p1ulv12475.1.2 switch=n enabled=y phases=2 Linecode=1P_OH_AL_4/0_Zuzara_0_416_0_2_2

New Line.l(r:p1ulv16440-udt1679lv) Units=km Length=0.0228727 bus1=udt1679lv.1.2 bus2=p1ulv16440.1.2 switch=n enabled=y phases=2 Linecode=1P_OH_AL_2/0_Rucina_0_416_0_2_2

New Line.l(r:p1ulv12476-udm6688) Units=km Length=0.026090100000000005 bus1=udm6688.1.2 bus2=p1ulv12476.1.2 switch=n enabled=y phases=2 Linecode=1P_OH_AL_2/0_Rucina_0_416_0_2_2

New Line.l(r:udm6688-udt1679lv) Units=km Length=0.0189848 bus1=udt1679lv.1.2 bus2=udm6688.1.2 switch=n enabled=y phases=2 Linecode=1P_OH_AL_2/0_Rucina_0_416_0_2_2

New Line.l(r:p1ulv3561-udt1680lv) Units=km Length=0.02843 bus1=udt1680lv.1.2 bus2=p1ulv3561.1.2 switch=n enabled=y phases=2 Linecode=1P_OH_AL_4/0_Zuzara_0_416_0_2_2

New Line.l(r:p1ulv20224-udm6691) Units=km Length=0.0264005 bus1=udm6691.1.2 bus2=p1ulv20224.1.2 switch=n enabled=y phases=2 Linecode=1P_OH_AL_2/0_Rucina_0_416_0_2_2

New Line.l(r:udm6691-udt1680lv) Units=km Length=0.0182128 bus1=udt1680lv.1.2 bus2=udm6691.1.2 switch=n enabled=y phases=2 Linecode=1P_OH_AL_2/0_Rucina_0_416_0_2_2

New Line.l(r:p1ulv20626-udm6692) Units=km Length=0.0280123 bus1=udm6692.1.2 bus2=p1ulv20626.1.2 switch=n enabled=y phases=2 Linecode=1P_OH_AL_4/0_Zuzara_0_416_0_2_2

New Line.l(r:udm6692-udt1680lv) Units=km Length=0.0360572 bus1=udt1680lv.1.2 bus2=udm6692.1.2 switch=n enabled=y phases=2 Linecode=1P_OH_AL_4/0_Zuzara_0_416_0_2_2

New Line.l(r:p1ulv3562-udt1681lv) Units=km Length=0.0183235 bus1=udt1681lv.1.2 bus2=p1ulv3562.1.2 switch=n enabled=y phases=2 Linecode=1P_OH_AL_2/0_Rucina_0_416_0_2_2

New Line.l(r:p1ulv15026-udm6694) Units=km Length=0.0193904 bus1=udm6694.1.2 bus2=p1ulv15026.1.2 switch=n enabled=y phases=2 Linecode=1P_OH_AL_2/0_Rucina_0_416_0_2_2

New Line.l(r:udm6694-udt1681lv) Units=km Length=0.0164098 bus1=udt1681lv.1.2 bus2=udm6694.1.2 switch=n enabled=y phases=2 Linecode=1P_OH_AL_2/0_Rucina_0_416_0_2_2

New Line.l(r:p1ulv3563-udm6695) Units=km Length=0.026447 bus1=udm6695.1.2 bus2=p1ulv3563.1.2 switch=n enabled=y phases=2 Linecode=1P_OH_AL_2/0_Rucina_0_416_0_2_2

New Line.l(r:udm6695-udt1682lv) Units=km Length=0.0159142 bus1=udt1682lv.1.2 bus2=udm6695.1.2 switch=n enabled=y phases=2 Linecode=1P_OH_AL_2/0_Rucina_0_416_0_2_2

New Line.l(r:p1ulv18858-udm6696) Units=km Length=0.0265904 bus1=udm6696.1.2 bus2=p1ulv18858.1.2 switch=n enabled=y phases=2 Linecode=1P_OH_AL_2/0_Rucina_0_416_0_2_2

New Line.l(r:udm6696-udt1682lv) Units=km Length=0.0323032 bus1=udt1682lv.1.2 bus2=udm6696.1.2 switch=n enabled=y phases=2 Linecode=1P_OH_AL_4/0_Zuzara_0_416_0_2_2

New Line.l(r:p1ulv3564-udt1683lv) Units=km Length=0.037695700000000006 bus1=udt1683lv.1.2 bus2=p1ulv3564.1.2 switch=n enabled=y phases=2 Linecode=1P_OH_AL_4/0_Zuzara_0_416_0_2_2

New Line.l(r:p1ulv20080-udm6698) Units=km Length=0.0168586 bus1=udm6698.1.2 bus2=p1ulv20080.1.2 switch=n enabled=y phases=2 Linecode=1P_OH_AL_2/0_Rucina_0_416_0_2_2

New Line.l(r:p1ulv22318-udm6698) Units=km Length=0.0126781 bus1=udm6698.1.2 bus2=p1ulv22318.1.2 switch=n enabled=y phases=2 Linecode=1P_OH_AL_2/0_Rucina_0_416_0_2_2

New Line.l(r:udm6698-udt1683lv) Units=km Length=0.0143276 bus1=udt1683lv.1.2 bus2=udm6698.1.2 switch=n enabled=y phases=2 Linecode=1P_OH_AL_2/0_Rucina_0_416_0_2_2

New Line.l(r:p1ulv3565-udm6700) Units=km Length=0.0189799 bus1=udm6700.1.2 bus2=p1ulv3565.1.2 switch=n enabled=y phases=2 Linecode=1P_OH_AL_2/0_Rucina_0_416_0_2_2

New Line.l(r:udm6700-udt1684lv) Units=km Length=0.0137922 bus1=udt1684lv.1.2 bus2=udm6700.1.2 switch=n enabled=y phases=2 Linecode=1P_OH_AL_2/0_Rucina_0_416_0_2_2

New Line.l(r:p1ulv16683-udm6701) Units=km Length=0.0195817 bus1=udm6701.1.2 bus2=p1ulv16683.1.2 switch=n enabled=y phases=2 Linecode=1P_OH_AL_2/0_Rucina_0_416_0_2_2

New Line.l(r:udm6701-udt1684lv) Units=km Length=0.0190217 bus1=udt1684lv.1.2 bus2=udm6701.1.2 switch=n enabled=y phases=2 Linecode=1P_OH_AL_2/0_Rucina_0_416_0_2_2

New Line.l(r:p1ulv3566-udt1685lv) Units=km Length=0.0180694 bus1=udt1685lv.1.2 bus2=p1ulv3566.1.2 switch=n enabled=y phases=2 Linecode=1P_OH_AL_2/0_Rucina_0_416_0_2_2

New Line.l(r:p1ulv3567-udm6703) Units=km Length=0.01998 bus1=udm6703.1.2 bus2=p1ulv3567.1.2 switch=n enabled=y phases=2 Linecode=1P_OH_AL_2/0_Rucina_0_416_0_2_2

New Line.l(r:udm6703-udt1685lv) Units=km Length=0.0223585 bus1=udt1685lv.1.2 bus2=udm6703.1.2 switch=n enabled=y phases=2 Linecode=1P_OH_AL_2/0_Rucina_0_416_0_2_2

New Line.l(r:p1ulv22399-udm6704) Units=km Length=0.0418191 bus1=udm6704.1.2 bus2=p1ulv22399.1.2 switch=n enabled=y phases=2 Linecode=1P_OH_AL_4/0_Zuzara_0_416_0_2_2

New Line.l(r:udm6704-udt1685lv) Units=km Length=0.0196722 bus1=udt1685lv.1.2 bus2=udm6704.1.2 switch=n enabled=y phases=2 Linecode=1P_OH_AL_2/0_Rucina_0_416_0_2_2

New Line.l(r:p1ulv3568-udm6705) Units=km Length=0.0191224 bus1=udm6705.1.2 bus2=p1ulv3568.1.2 switch=n enabled=y phases=2 Linecode=1P_OH_AL_2/0_Rucina_0_416_0_2_2

New Line.l(r:udm6705-udt1686lv) Units=km Length=0.019259800000000004 bus1=udt1686lv.1.2 bus2=udm6705.1.2 switch=n enabled=y phases=2 Linecode=1P_OH_AL_2/0_Rucina_0_416_0_2_2

New Line.l(r:p1ulv14688-udm6706) Units=km Length=0.017656200000000004 bus1=udm6706.1.2 bus2=p1ulv14688.1.2 switch=n enabled=y phases=2 Linecode=1P_OH_AL_2/0_Rucina_0_416_0_2_2

New Line.l(r:udm6706-udt1686lv) Units=km Length=0.0132917 bus1=udt1686lv.1.2 bus2=udm6706.1.2 switch=n enabled=y phases=2 Linecode=1P_OH_AL_2/0_Rucina_0_416_0_2_2

New Line.l(r:p1ulv3572-udm6711) Units=km Length=0.0194229 bus1=udm6711.1.2 bus2=p1ulv3572.1.2 switch=n enabled=y phases=2 Linecode=1P_UG_AL_1/0_Brenau_0_416_0_2_2

New Line.l(r:p1ulv29246-udm6711) Units=km Length=0.0203166 bus1=udm6711.1.2 bus2=p1ulv29246.1.2 switch=n enabled=y phases=2 Linecode=1P_UG_AL_1/0_Brenau_0_416_0_2_2

New Line.l(r:p1ulv15204-udm6713) Units=km Length=0.018368500000000003 bus1=udm6713.1.2 bus2=p1ulv15204.1.2 switch=n enabled=y phases=2 Linecode=1P_UG_AL_1/0_Brenau_0_416_0_2_2

New Line.l(r:udm6711-udm6713) Units=km Length=0.00923134 bus1=udm6711.1.2 bus2=udm6713.1.2 switch=n enabled=y phases=2 Linecode=1P_UG_AL_1/0_Brenau_0_416_0_2_2

New Line.l(r:udm6711-udt1690lv) Units=km Length=0.00923564 bus1=udt1690lv.1.2 bus2=udm6711.1.2 switch=n enabled=y phases=2 Linecode=1P_UG_AL_4/0_Sweetbriar_0_416_0_2_2

New Line.l(r:p1ulv34171-udm6715) Units=km Length=0.0185407 bus1=udm6715.1.2 bus2=p1ulv34171.1.2 switch=n enabled=y phases=2 Linecode=1P_UG_AL_1/0_Brenau_0_416_0_2_2

New Line.l(r:p1ulv13220-udm6712) Units=km Length=0.0186611 bus1=udm6712.1.2 bus2=p1ulv13220.1.2 switch=n enabled=y phases=2 Linecode=1P_UG_AL_1/0_Brenau_0_416_0_2_2

New Line.l(r:udm6712-udm6715) Units=km Length=0.00923564 bus1=udm6715.1.2 bus2=udm6712.1.2 switch=n enabled=y phases=2 Linecode=1P_UG_AL_1/0_Brenau_0_416_0_2_2

New Line.l(r:udm6715-udt1690lv) Units=km Length=0.00922675 bus1=udt1690lv.1.2 bus2=udm6715.1.2 switch=n enabled=y phases=2 Linecode=1P_UG_AL_2/0_Converse_0_416_0_2_2

New Line.l(r:p1ulv25471-udt1691lv) Units=km Length=0.0267889 bus1=udt1691lv.1.2 bus2=p1ulv25471.1.2 switch=n enabled=y phases=2 Linecode=1P_OH_AL_2/0_Rucina_0_416_0_2_2

New Line.l(r:p1ulv3573-udm6716) Units=km Length=0.0240847 bus1=udm6716.1.2 bus2=p1ulv3573.1.2 switch=n enabled=y phases=2 Linecode=1P_OH_AL_2/0_Rucina_0_416_0_2_2

New Line.l(r:udm6716-udt1691lv) Units=km Length=0.038035 bus1=udt1691lv.1.2 bus2=udm6716.1.2 switch=n enabled=y phases=2 Linecode=1P_OH_AL_4/0_Zuzara_0_416_0_2_2

New Line.l(r:p1ulv30808-udm6718) Units=km Length=0.0277613 bus1=udm6718.1.2 bus2=p1ulv30808.1.2 switch=n enabled=y phases=2 Linecode=1P_UG_AL_1/0_Brenau_0_416_0_2_2

New Line.l(r:udm6718-udt1691lv) Units=km Length=0.0293684 bus1=udt1691lv.1.2 bus2=udm6718.1.2 switch=n enabled=y phases=2 Linecode=1P_OH_AL_4/0_Zuzara_0_416_0_2_2

New Line.l(r:p1ulv3574-udm6719) Units=km Length=0.021158000000000003 bus1=udm6719.1.2 bus2=p1ulv3574.1.2 switch=n enabled=y phases=2 Linecode=1P_OH_AL_2/0_Rucina_0_416_0_2_2

New Line.l(r:udm6719-udt1692lv) Units=km Length=0.0154554 bus1=udt1692lv.1.2 bus2=udm6719.1.2 switch=n enabled=y phases=2 Linecode=1P_OH_AL_2/0_Rucina_0_416_0_2_2

New Line.l(r:p1ulv3575-udm6720) Units=km Length=0.014816 bus1=udm6720.1.2 bus2=p1ulv3575.1.2 switch=n enabled=y phases=2 Linecode=1P_OH_AL_2/0_Rucina_0_416_0_2_2

New Line.l(r:udm6720-udt1692lv) Units=km Length=0.0496755 bus1=udt1692lv.1.2 bus2=udm6720.1.2 switch=n enabled=y phases=2 Linecode=1P_OH_AL_4/0_Zuzara_0_416_0_2_2

New Line.l(r:p1ulv3581-udt1698lv) Units=km Length=0.0294012 bus1=udt1698lv.1.2 bus2=p1ulv3581.1.2 switch=n enabled=y phases=2 Linecode=1P_UG_AL_1/0_Brenau_0_416_0_2_2

New Line.l(r:p1ulv21419-udm6742) Units=km Length=0.0185339 bus1=udm6742.1.2 bus2=p1ulv21419.1.2 switch=n enabled=y phases=2 Linecode=1P_UG_AL_1/0_Brenau_0_416_0_2_2

New Line.l(r:udm6742-udt1698lv) Units=km Length=0.016692000000000002 bus1=udt1698lv.1.2 bus2=udm6742.1.2 switch=n enabled=y phases=2 Linecode=1P_UG_AL_1/0_Brenau_0_416_0_2_2

New Line.l(r:p1ulv34281-udm6743) Units=km Length=0.03909540000000001 bus1=udm6743.1.2 bus2=p1ulv34281.1.2 switch=n enabled=y phases=2 Linecode=1P_UG_AL_1/0_Brenau_0_416_0_2_2

New Line.l(r:udm6743-udt1698lv) Units=km Length=0.035923 bus1=udt1698lv.1.2 bus2=udm6743.1.2 switch=n enabled=y phases=2 Linecode=1P_UG_AL_1/0_Brenau_0_416_0_2_2

New Line.l(r:p1ulv3582-udt1699lv) Units=km Length=0.0619243 bus1=udt1699lv.1.2 bus2=p1ulv3582.1.2 switch=n enabled=y phases=2 Linecode=1P_OH_AL_4/0_Zuzara_0_416_0_2_2

New Line.l(r:p1ulv3583-udt1700lv) Units=km Length=0.0641859 bus1=udt1700lv.1.2 bus2=p1ulv3583.1.2 switch=n enabled=y phases=2 Linecode=1P_OH_AL_4/0_Zuzara_0_416_0_2_2

New Line.l(r:p1ulv3584-udt1701lv) Units=km Length=0.0231247 bus1=udt1701lv.1.2 bus2=p1ulv3584.1.2 switch=n enabled=y phases=2 Linecode=1P_UG_AL_1/0_Brenau_0_416_0_2_2

New Line.l(r:p1ulv20594-udm6747) Units=km Length=0.0181499 bus1=udm6747.1.2 bus2=p1ulv20594.1.2 switch=n enabled=y phases=2 Linecode=1P_UG_AL_1/0_Brenau_0_416_0_2_2

New Line.l(r:udm6747-udt1701lv) Units=km Length=0.0088102 bus1=udt1701lv.1.2 bus2=udm6747.1.2 switch=n enabled=y phases=2 Linecode=1P_UG_AL_1/0_Brenau_0_416_0_2_2

New Line.l(r:p1ulv3585-udt1702lv) Units=km Length=0.001 bus1=udt1702lv.1.2 bus2=p1ulv3585.1.2 switch=n enabled=y phases=2 Linecode=1P_OH_AL_4_Periwinkle_0_416_0_2_2

New Line.l(r:p1ulv7258-udm12778) Units=km Length=0.0224617 bus1=udm12778.1.2 bus2=p1ulv7258.1.2 switch=n enabled=y phases=2 Linecode=1P_OH_AL_2/0_Rucina_0_416_0_2_2

New Line.l(r:udm12778-udt3246lv) Units=km Length=0.0123742 bus1=udt3246lv.1.2 bus2=udm12778.1.2 switch=n enabled=y phases=2 Linecode=1P_OH_AL_2/0_Rucina_0_416_0_2_2

New Line.l(r:p1ulv14370-udm12779) Units=km Length=0.00796986 bus1=udm12779.1.2 bus2=p1ulv14370.1.2 switch=n enabled=y phases=2 Linecode=1P_OH_AL_2/0_Rucina_0_416_0_2_2

New Line.l(r:p1ulv14371-udm12780) Units=km Length=0.0135602 bus1=udm12780.1.2 bus2=p1ulv14371.1.2 switch=n enabled=y phases=2 Linecode=1P_UG_AL_1/0_Brenau_0_416_0_2_2

New Line.l(r:p1ulv18838-udm12781) Units=km Length=0.00338534 bus1=udm12781.1.2 bus2=p1ulv18838.1.2 switch=n enabled=y phases=2 Linecode=1P_UG_AL_1/0_Brenau_0_416_0_2_2

New Line.l(r:p1ulv20100-udm12782) Units=km Length=0.00848677 bus1=udm12782.1.2 bus2=p1ulv20100.1.2 switch=n enabled=y phases=2 Linecode=1P_UG_AL_1/0_Brenau_0_416_0_2_2

New Line.l(r:p1ulv31015-udm12782) Units=km Length=0.0263104 bus1=udm12782.1.2 bus2=p1ulv31015.1.2 switch=n enabled=y phases=2 Linecode=1P_UG_AL_1/0_Brenau_0_416_0_2_2

New Line.l(r:udm12781-udm12782) Units=km Length=0.009560080000000002 bus1=udm12781.1.2 bus2=udm12782.1.2 switch=n enabled=y phases=2 Linecode=1P_UG_AL_2/0_Converse_0_416_0_2_2

New Line.l(r:udm12780-udm12781) Units=km Length=0.0596853 bus1=udm12780.1.2 bus2=udm12781.1.2 switch=n enabled=y phases=2 Linecode=1P_UG_AL_4/0_Sweetbriar_0_416_0_2_2

New Line.l(r:udm12779-udm12780) Units=km Length=0.0227023 bus1=udm12779.1.2 bus2=udm12780.1.2 switch=n enabled=y phases=2 Linecode=1P_OH_AL_2/0_Rucina_0_416_0_2_2

New Line.l(r:udm12779-udt3246lv) Units=km Length=0.016552700000000004 bus1=udt3246lv.1.2 bus2=udm12779.1.2 switch=n enabled=y phases=2 Linecode=1P_OH_AL_2/0_Rucina_0_416_0_2_0_2

New Line.l(r:p1ulv7262-udt3249lv) Units=km Length=0.021992 bus1=udt3249lv.1.2 bus2=p1ulv7262.1.2 switch=n enabled=y phases=2 Linecode=1P_OH_AL_2/0_Rucina_0_416_0_2_2

New Line.l(r:p1ulv13147-udm12793) Units=km Length=0.0301533 bus1=udm12793.1.2 bus2=p1ulv13147.1.2 switch=n enabled=y phases=2 Linecode=1P_OH_AL_4/0_Zuzara_0_416_0_2_2

New Line.l(r:udm12793-udt3249lv) Units=km Length=0.0196866 bus1=udt3249lv.1.2 bus2=udm12793.1.2 switch=n enabled=y phases=2 Linecode=1P_OH_AL_2/0_Rucina_0_416_0_2_2

New Line.l(r:p1ulv24907-udm12794) Units=km Length=0.0279614 bus1=udm12794.1.2 bus2=p1ulv24907.1.2 switch=n enabled=y phases=2 Linecode=1P_OH_AL_4/0_Zuzara_0_416_0_2_2

New Line.l(r:udm12794-udt3249lv) Units=km Length=0.0393537 bus1=udt3249lv.1.2 bus2=udm12794.1.2 switch=n enabled=y phases=2 Linecode=1P_OH_AL_4/0_Zuzara_0_416_0_2_2

New Line.l(r:p1ulv7695-udt3499lv) Units=km Length=0.0120704 bus1=udt3499lv.1.2 bus2=p1ulv7695.1.2 switch=n enabled=y phases=2 Linecode=1P_UG_AL_4/0_Sweetbriar_0_416_0_2_2

New Line.l(r:p1ulv7697-udm13719) Units=km Length=0.0240918 bus1=udm13719.1.2 bus2=p1ulv7697.1.2 switch=n enabled=y phases=2 Linecode=1P_UG_AL_1/0_Brenau_0_416_0_2_2

New Line.l(r:udm13719-udt3501lv) Units=km Length=0.00935674 bus1=udt3501lv.1.2 bus2=udm13719.1.2 switch=n enabled=y phases=2 Linecode=1P_UG_AL_1/0_Brenau_0_416_0_2_2

New Line.l(r:p1ulv25027-udm13720) Units=km Length=0.026745500000000002 bus1=udm13720.1.2 bus2=p1ulv25027.1.2 switch=n enabled=y phases=2 Linecode=1P_UG_AL_1/0_Brenau_0_416_0_2_2

New Line.l(r:udm13720-udt3501lv) Units=km Length=0.018709500000000004 bus1=udt3501lv.1.2 bus2=udm13720.1.2 switch=n enabled=y phases=2 Linecode=1P_UG_AL_1/0_Brenau_0_416_0_2_2

New Line.l(r:p1ulv7702-udm13724) Units=km Length=0.0294008 bus1=udm13724.1.2 bus2=p1ulv7702.1.2 switch=n enabled=y phases=2 Linecode=1P_UG_AL_1/0_Brenau_0_416_0_2_2

New Line.l(r:udm13724-udt3504lv) Units=km Length=0.0299661 bus1=udt3504lv.1.2 bus2=udm13724.1.2 switch=n enabled=y phases=2 Linecode=1P_UG_AL_1/0_Brenau_0_416_0_2_2

New Line.l(r:p1ulv15525-udm13725) Units=km Length=0.0197739 bus1=udm13725.1.2 bus2=p1ulv15525.1.2 switch=n enabled=y phases=2 Linecode=1P_UG_AL_1/0_Brenau_0_416_0_2_2

New Line.l(r:p1ulv7700-udm13723) Units=km Length=0.0166148 bus1=udm13723.1.2 bus2=p1ulv7700.1.2 switch=n enabled=y phases=2 Linecode=1P_UG_AL_1/0_Brenau_0_416_0_2_2

New Line.l(r:udm13723-udm13725) Units=km Length=0.0330723 bus1=udm13725.1.2 bus2=udm13723.1.2 switch=n enabled=y phases=2 Linecode=1P_UG_AL_1/0_Brenau_0_416_0_2_2

New Line.l(r:udm13725-udt3504lv) Units=km Length=0.0292629 bus1=udt3504lv.1.2 bus2=udm13725.1.2 switch=n enabled=y phases=2 Linecode=1P_UG_AL_2/0_Converse_0_416_0_2_2

New Line.l(r:p1ulv23721-udm13732) Units=km Length=0.0198952 bus1=udm13732.1.2 bus2=p1ulv23721.1.2 switch=n enabled=y phases=2 Linecode=1P_UG_AL_1/0_Brenau_0_416_0_2_2

New Line.l(r:p1ulv7705-udm13730) Units=km Length=0.0179316 bus1=udm13730.1.2 bus2=p1ulv7705.1.2 switch=n enabled=y phases=2 Linecode=1P_UG_AL_1/0_Brenau_0_416_0_2_2

New Line.l(r:udm13730-udm13732) Units=km Length=0.0195322 bus1=udm13732.1.2 bus2=udm13730.1.2 switch=n enabled=y phases=2 Linecode=1P_UG_AL_1/0_Brenau_0_416_0_2_2

New Line.l(r:udm13732-udt3508lv) Units=km Length=0.00977115 bus1=udt3508lv.1.2 bus2=udm13732.1.2 switch=n enabled=y phases=2 Linecode=1P_UG_AL_2/0_Converse_0_416_0_2_2

New Line.l(r:p1ulv37326-udm13734) Units=km Length=0.0196638 bus1=udm13734.1.2 bus2=p1ulv37326.1.2 switch=n enabled=y phases=2 Linecode=1P_UG_AL_1/0_Brenau_0_416_0_2_2

New Line.l(r:p1ulv22162-udm13731) Units=km Length=0.0203419 bus1=udm13731.1.2 bus2=p1ulv22162.1.2 switch=n enabled=y phases=2 Linecode=1P_UG_AL_1/0_Brenau_0_416_0_2_2

New Line.l(r:p1ulv34086-udm13731) Units=km Length=0.0198929 bus1=udm13731.1.2 bus2=p1ulv34086.1.2 switch=n enabled=y phases=2 Linecode=1P_UG_AL_1/0_Brenau_0_416_0_2_2

New Line.l(r:udm13731-udm13734) Units=km Length=0.009761 bus1=udm13734.1.2 bus2=udm13731.1.2 switch=n enabled=y phases=2 Linecode=1P_UG_AL_2/0_Converse_0_416_0_2_2

New Line.l(r:udm13734-udt3508lv) Units=km Length=0.00977115 bus1=udt3508lv.1.2 bus2=udm13734.1.2 switch=n enabled=y phases=2 Linecode=1P_UG_AL_4/0_Sweetbriar_0_416_0_2_2

New Line.l(r:p1ulv7706-udt3509lv) Units=km Length=0.0252961 bus1=udt3509lv.1.2 bus2=p1ulv7706.1.2 switch=n enabled=y phases=2 Linecode=1P_UG_AL_4/0_Sweetbriar_0_416_0_2_2

New Line.l(r:p1ulv7707-udm13736) Units=km Length=0.0241971 bus1=udm13736.1.2 bus2=p1ulv7707.1.2 switch=n enabled=y phases=2 Linecode=1P_OH_AL_2/0_Rucina_0_416_0_2_2

New Line.l(r:udm13736-udt3510lv) Units=km Length=0.018734100000000004 bus1=udt3510lv.1.2 bus2=udm13736.1.2 switch=n enabled=y phases=2 Linecode=1P_OH_AL_2/0_Rucina_0_416_0_2_2

New Line.l(r:p1ulv25474-udm13737) Units=km Length=0.0250166 bus1=udm13737.1.2 bus2=p1ulv25474.1.2 switch=n enabled=y phases=2 Linecode=1P_OH_AL_2/0_Rucina_0_416_0_2_2

New Line.l(r:udm13737-udt3510lv) Units=km Length=0.018734100000000004 bus1=udt3510lv.1.2 bus2=udm13737.1.2 switch=n enabled=y phases=2 Linecode=1P_OH_AL_2/0_Rucina_0_416_0_2_2

New Line.l(r:p1ulv22624-udt3511lv) Units=km Length=0.027205 bus1=udt3511lv.1.2 bus2=p1ulv22624.1.2 switch=n enabled=y phases=2 Linecode=1P_UG_AL_1/0_Brenau_0_416_0_2_2

New Line.l(r:p1ulv22642-udt3511lv) Units=km Length=0.0122004 bus1=udt3511lv.1.2 bus2=p1ulv22642.1.2 switch=n enabled=y phases=2 Linecode=1P_UG_AL_1/0_Brenau_0_416_0_2_2

New Line.l(r:p1ulv7708-udm13738) Units=km Length=0.0528807 bus1=udm13738.1.2 bus2=p1ulv7708.1.2 switch=n enabled=y phases=2 Linecode=1P_UG_AL_1/0_Brenau_0_416_0_2_2

New Line.l(r:p1ulv22625-udm13738) Units=km Length=0.0271277 bus1=udm13738.1.2 bus2=p1ulv22625.1.2 switch=n enabled=y phases=2 Linecode=1P_UG_AL_1/0_Brenau_0_416_0_2_2

New Line.l(r:p1ulv22622-udm13739) Units=km Length=0.0353982 bus1=udm13739.1.2 bus2=p1ulv22622.1.2 switch=n enabled=y phases=2 Linecode=1P_UG_AL_1/0_Brenau_0_416_0_2_2

New Line.l(r:udm13738-udm13739) Units=km Length=0.0127677 bus1=udm13738.1.2 bus2=udm13739.1.2 switch=n enabled=y phases=2 Linecode=1P_UG_AL_1/0_Brenau_0_416_0_2_2

New Line.l(r:udm13738-udt3511lv) Units=km Length=0.00865916 bus1=udt3511lv.1.2 bus2=udm13738.1.2 switch=n enabled=y phases=2 Linecode=1P_UG_AL_2/0_Converse_0_416_0_2_2

New Line.l(r:p1ulv22623-udm13740) Units=km Length=0.0190927 bus1=udm13740.1.2 bus2=p1ulv22623.1.2 switch=n enabled=y phases=2 Linecode=1P_UG_AL_1/0_Brenau_0_416_0_2_2

New Line.l(r:p1ulv22641-udm13740) Units=km Length=0.01056 bus1=udm13740.1.2 bus2=p1ulv22641.1.2 switch=n enabled=y phases=2 Linecode=1P_UG_AL_1/0_Brenau_0_416_0_2_2

New Line.l(r:p1ulv22640-udm13744) Units=km Length=0.0175253 bus1=udm13744.1.2 bus2=p1ulv22640.1.2 switch=n enabled=y phases=2 Linecode=1P_UG_AL_1/0_Brenau_0_416_0_2_2

New Line.l(r:p1ulv22627-udm13743) Units=km Length=0.0135298 bus1=udm13743.1.2 bus2=p1ulv22627.1.2 switch=n enabled=y phases=2 Linecode=1P_UG_AL_1/0_Brenau_0_416_0_2_2

New Line.l(r:udm13743-udm13744) Units=km Length=0.0145702 bus1=udm13744.1.2 bus2=udm13743.1.2 switch=n enabled=y phases=2 Linecode=1P_UG_AL_1/0_Brenau_0_416_0_2_2

New Line.l(r:udm13740-udm13744) Units=km Length=0.00865998 bus1=udm13740.1.2 bus2=udm13744.1.2 switch=n enabled=y phases=2 Linecode=1P_UG_AL_1/0_Brenau_0_416_0_2_2

New Line.l(r:udm13740-udt3511lv) Units=km Length=0.00864919 bus1=udt3511lv.1.2 bus2=udm13740.1.2 switch=n enabled=y phases=2 Linecode=1P_UG_AL_4/0_Sweetbriar_0_416_0_2_2

New Line.l(r:p1ulv7709-udm13747) Units=km Length=0.0316412 bus1=udm13747.1.2 bus2=p1ulv7709.1.2 switch=n enabled=y phases=2 Linecode=1P_OH_AL_4/0_Zuzara_0_416_0_2_2

New Line.l(r:udm13747-udt3512lv) Units=km Length=0.0185997 bus1=udt3512lv.1.2 bus2=udm13747.1.2 switch=n enabled=y phases=2 Linecode=1P_OH_AL_2/0_Rucina_0_416_0_2_2

New Line.l(r:p1ulv22616-udm13748) Units=km Length=0.028524400000000002 bus1=udm13748.1.2 bus2=p1ulv22616.1.2 switch=n enabled=y phases=2 Linecode=1P_OH_AL_4/0_Zuzara_0_416_0_2_2

New Line.l(r:udm13748-udt3512lv) Units=km Length=0.037696 bus1=udt3512lv.1.2 bus2=udm13748.1.2 switch=n enabled=y phases=2 Linecode=1P_OH_AL_4/0_Zuzara_0_416_0_2_2

New Line.l(r:p1ulv7710-udm13749) Units=km Length=0.0220005 bus1=udm13749.1.2 bus2=p1ulv7710.1.2 switch=n enabled=y phases=2 Linecode=1P_OH_AL_2/0_Rucina_0_416_0_2_2

New Line.l(r:udm13749-udt3513lv) Units=km Length=0.0179777 bus1=udt3513lv.1.2 bus2=udm13749.1.2 switch=n enabled=y phases=2 Linecode=1P_OH_AL_2/0_Rucina_0_416_0_2_2

New Line.l(r:p1ulv23371-udm13750) Units=km Length=0.0280192 bus1=udm13750.1.2 bus2=p1ulv23371.1.2 switch=n enabled=y phases=2 Linecode=1P_OH_AL_4/0_Zuzara_0_416_0_2_2

New Line.l(r:udm13750-udt3513lv) Units=km Length=0.0179648 bus1=udt3513lv.1.2 bus2=udm13750.1.2 switch=n enabled=y phases=2 Linecode=1P_OH_AL_2/0_Rucina_0_416_0_2_2

New Line.l(r:p1ulv7712-udt3514lv) Units=km Length=0.0337692 bus1=udt3514lv.1.2 bus2=p1ulv7712.1.2 switch=n enabled=y phases=2 Linecode=1P_UG_AL_1/0_Brenau_0_416_0_2_2

New Line.l(r:p1ulv7711-udm13751) Units=km Length=0.0121657 bus1=udm13751.1.2 bus2=p1ulv7711.1.2 switch=n enabled=y phases=2 Linecode=1P_UG_AL_1/0_Brenau_0_416_0_2_2

New Line.l(r:p1ulv25829-udm13756) Units=km Length=0.0123548 bus1=udm13756.1.2 bus2=p1ulv25829.1.2 switch=n enabled=y phases=2 Linecode=1P_UG_AL_1/0_Brenau_0_416_0_2_2

New Line.l(r:udm13751-udm13756) Units=km Length=0.009792570000000002 bus1=udm13751.1.2 bus2=udm13756.1.2 switch=n enabled=y phases=2 Linecode=1P_UG_AL_1/0_Brenau_0_416_0_2_2

New Line.l(r:udm13751-udt3514lv) Units=km Length=0.00979379 bus1=udt3514lv.1.2 bus2=udm13751.1.2 switch=n enabled=y phases=2 Linecode=1P_UG_AL_2/0_Converse_0_416_0_2_2

New Line.l(r:p1ulv13698-udm13753) Units=km Length=0.0138427 bus1=udm13753.1.2 bus2=p1ulv13698.1.2 switch=n enabled=y phases=2 Linecode=1P_UG_AL_1/0_Brenau_0_416_0_2_2

New Line.l(r:p1ulv15805-udm13754) Units=km Length=0.0131415 bus1=udm13754.1.2 bus2=p1ulv15805.1.2 switch=n enabled=y phases=2 Linecode=1P_UG_AL_1/0_Brenau_0_416_0_2_2

New Line.l(r:p1ulv20082-udm13755) Units=km Length=0.014735300000000002 bus1=udm13755.1.2 bus2=p1ulv20082.1.2 switch=n enabled=y phases=2 Linecode=1P_UG_AL_1/0_Brenau_0_416_0_2_2

New Line.l(r:udm13754-udm13755) Units=km Length=0.00852738 bus1=udm13754.1.2 bus2=udm13755.1.2 switch=n enabled=y phases=2 Linecode=1P_UG_AL_1/0_Brenau_0_416_0_2_2

New Line.l(r:udm13753-udm13754) Units=km Length=0.0268404 bus1=udm13753.1.2 bus2=udm13754.1.2 switch=n enabled=y phases=2 Linecode=1P_UG_AL_1/0_Brenau_0_416_0_2_2

New Line.l(r:udm13753-udt3514lv) Units=km Length=0.009792570000000002 bus1=udt3514lv.1.2 bus2=udm13753.1.2 switch=n enabled=y phases=2 Linecode=1P_UG_AL_4/0_Sweetbriar_0_416_0_2_2

New Line.l(r:p1ulv23769-udt3515lv) Units=km Length=0.0183338 bus1=udt3515lv.1.2 bus2=p1ulv23769.1.2 switch=n enabled=y phases=2 Linecode=1P_UG_AL_1/0_Brenau_0_416_0_2_2

New Line.l(r:p1ulv22572-udm13758) Units=km Length=0.0127753 bus1=udm13758.1.2 bus2=p1ulv22572.1.2 switch=n enabled=y phases=2 Linecode=1P_UG_AL_1/0_Brenau_0_416_0_2_2

New Line.l(r:udm13758-udt3515lv) Units=km Length=0.0512037 bus1=udt3515lv.1.2 bus2=udm13758.1.2 switch=n enabled=y phases=2 Linecode=1P_UG_AL_1/0_Brenau_0_416_0_2_2

New Line.l(r:p1ulv22594-udm13761) Units=km Length=0.0341074 bus1=udm13761.1.2 bus2=p1ulv22594.1.2 switch=n enabled=y phases=2 Linecode=1P_UG_AL_1/0_Brenau_0_416_0_2_2

New Line.l(r:p1ulv7713-udm13757) Units=km Length=0.018238 bus1=udm13757.1.2 bus2=p1ulv7713.1.2 switch=n enabled=y phases=2 Linecode=1P_UG_AL_1/0_Brenau_0_416_0_2_2

New Line.l(r:p1ulv22592-udm13757) Units=km Length=0.011762500000000002 bus1=udm13757.1.2 bus2=p1ulv22592.1.2 switch=n enabled=y phases=2 Linecode=1P_UG_AL_1/0_Brenau_0_416_0_2_2

New Line.l(r:p1ulv22593-udm13757) Units=km Length=0.0273807 bus1=udm13757.1.2 bus2=p1ulv22593.1.2 switch=n enabled=y phases=2 Linecode=1P_UG_AL_1/0_Brenau_0_416_0_2_2

New Line.l(r:udm13757-udm13761) Units=km Length=0.008690580000000002 bus1=udm13761.1.2 bus2=udm13757.1.2 switch=n enabled=y phases=2 Linecode=1P_UG_AL_4/0_Sweetbriar_0_416_0_2_2

New Line.l(r:udm13761-udt3515lv) Units=km Length=0.008698800000000001 bus1=udt3515lv.1.2 bus2=udm13761.1.2 switch=n enabled=y phases=2 Linecode=1P_UG_AL_4/0_Sweetbriar_0_416_0_2_2

New Line.l(r:p1ulv7714-udt3516lv) Units=km Length=0.013842100000000001 bus1=udt3516lv.1.2 bus2=p1ulv7714.1.2 switch=n enabled=y phases=2 Linecode=1P_UG_AL_1/0_Brenau_0_416_0_2_2

New Line.l(r:p1ulv35798-udm13764) Units=km Length=0.0133745 bus1=udm13764.1.2 bus2=p1ulv35798.1.2 switch=n enabled=y phases=2 Linecode=1P_UG_AL_1/0_Brenau_0_416_0_2_2

New Line.l(r:udm13764-udt3516lv) Units=km Length=0.00983181 bus1=udt3516lv.1.2 bus2=udm13764.1.2 switch=n enabled=y phases=2 Linecode=1P_UG_AL_1/0_Brenau_0_416_0_2_2

New Line.l(r:p1ulv7715-udm13765) Units=km Length=0.012033 bus1=udm13765.1.2 bus2=p1ulv7715.1.2 switch=n enabled=y phases=2 Linecode=1P_OH_AL_2/0_Rucina_0_416_0_2_2

New Line.l(r:p1ulv16892-udm13765) Units=km Length=0.0154062 bus1=udm13765.1.2 bus2=p1ulv16892.1.2 switch=n enabled=y phases=2 Linecode=1P_OH_AL_2/0_Rucina_0_416_0_2_2

New Line.l(r:udm13765-udt3517lv) Units=km Length=0.0263959 bus1=udt3517lv.1.2 bus2=udm13765.1.2 switch=n enabled=y phases=2 Linecode=1P_OH_AL_2/0_Rucina_0_416_0_2_2

New Line.l(r:p1ulv13223-udm13766) Units=km Length=0.0160977 bus1=udm13766.1.2 bus2=p1ulv13223.1.2 switch=n enabled=y phases=2 Linecode=1P_OH_AL_2/0_Rucina_0_416_0_2_2

New Line.l(r:p1ulv25171-udm13766) Units=km Length=0.0180952 bus1=udm13766.1.2 bus2=p1ulv25171.1.2 switch=n enabled=y phases=2 Linecode=1P_OH_AL_2/0_Rucina_0_416_0_2_2

New Line.l(r:p1ulv22361-udm13768) Units=km Length=0.0134194 bus1=udm13768.1.2 bus2=p1ulv22361.1.2 switch=n enabled=y phases=2 Linecode=1P_OH_AL_2/0_Rucina_0_416_0_2_2

New Line.l(r:udm13766-udm13768) Units=km Length=0.0132988 bus1=udm13766.1.2 bus2=udm13768.1.2 switch=n enabled=y phases=2 Linecode=1P_OH_AL_2/0_Rucina_0_416_0_2_2

New Line.l(r:udm13766-udt3517lv) Units=km Length=0.0133872 bus1=udt3517lv.1.2 bus2=udm13766.1.2 switch=n enabled=y phases=2 Linecode=1P_OH_AL_2/0_Rucina_0_416_0_2_2

New Line.l(r:p1ulv8683-udt3893lv) Units=km Length=0.0178387 bus1=udt3893lv.1.2 bus2=p1ulv8683.1.2 switch=n enabled=y phases=2 Linecode=1P_OH_AL_2/0_Rucina_0_416_0_2_2

New Line.l(r:p1ulv8684-udt3894lv) Units=km Length=0.0168721 bus1=udt3894lv.1.2 bus2=p1ulv8684.1.2 switch=n enabled=y phases=2 Linecode=1P_OH_AL_2/0_Rucina_0_416_0_2_2

New Line.l(r:p1ulv8685-udt3895lv) Units=km Length=0.0165908 bus1=udt3895lv.1.2 bus2=p1ulv8685.1.2 switch=n enabled=y phases=2 Linecode=1P_OH_AL_2/0_Rucina_0_416_0_2_2

New Line.l(r:p1ulv8686-udt3896lv) Units=km Length=0.0113073 bus1=udt3896lv.1.2 bus2=p1ulv8686.1.2 switch=n enabled=y phases=2 Linecode=1P_OH_AL_2/0_Rucina_0_416_0_2_2

New Line.l(r:p1ulv20474-udm15252) Units=km Length=0.0102412 bus1=udm15252.1.2 bus2=p1ulv20474.1.2 switch=n enabled=y phases=2 Linecode=1P_OH_AL_2/0_Rucina_0_416_0_2_2

New Line.l(r:udm15252-udt3896lv) Units=km Length=0.0200741 bus1=udt3896lv.1.2 bus2=udm15252.1.2 switch=n enabled=y phases=2 Linecode=1P_OH_AL_2/0_Rucina_0_416_0_2_2

New Line.l(r:p1ulv8687-udt3897lv) Units=km Length=0.0117543 bus1=udt3897lv.1.2 bus2=p1ulv8687.1.2 switch=n enabled=y phases=2 Linecode=1P_OH_AL_2/0_Rucina_0_416_0_2_2

New Line.l(r:p1ulv8688-udm15254) Units=km Length=0.0110565 bus1=udm15254.1.2 bus2=p1ulv8688.1.2 switch=n enabled=y phases=2 Linecode=1P_OH_AL_2/0_Rucina_0_416_0_2_2

New Line.l(r:udm15254-udt3897lv) Units=km Length=0.0130945 bus1=udt3897lv.1.2 bus2=udm15254.1.2 switch=n enabled=y phases=2 Linecode=1P_OH_AL_2/0_Rucina_0_416_0_2_2
