New Line.l(r:p1ulv28847-udt1877lv) Units=km Length=0.0180193 bus1=udt1877lv.1.2 bus2=p1ulv28847.1.2 switch=n enabled=y phases=2 Linecode=1P_UG_AL_1/0_Brenau_0_416_0_2_2

New Line.l(r:p1ulv36332-udt1877lv) Units=km Length=0.0173035 bus1=udt1877lv.1.2 bus2=p1ulv36332.1.2 switch=n enabled=y phases=2 Linecode=1P_UG_AL_1/0_Brenau_0_416_0_2_2

New Line.l(r:p1ulv4251-udm7529) Units=km Length=0.0221136 bus1=udm7529.1.2 bus2=p1ulv4251.1.2 switch=n enabled=y phases=2 Linecode=1P_UG_AL_1/0_Brenau_0_416_0_2_2

New Line.l(r:p1ulv37048-udm7534) Units=km Length=0.0172592 bus1=udm7534.1.2 bus2=p1ulv37048.1.2 switch=n enabled=y phases=2 Linecode=1P_OH_AL_2/0_Rucina_0_416_0_2_2

New Line.l(r:udm7529-udm7534) Units=km Length=0.0408901 bus1=udm7529.1.2 bus2=udm7534.1.2 switch=n enabled=y phases=2 Linecode=1P_OH_AL_4/0_Zuzara_0_416_0_2_2

New Line.l(r:udm7529-udt1877lv) Units=km Length=0.00921627 bus1=udt1877lv.1.2 bus2=udm7529.1.2 switch=n enabled=y phases=2 Linecode=1P_UG_AL_1/0_Brenau_0_416_0_2_2

New Line.l(r:p1ulv33150-udm7531) Units=km Length=0.0196284 bus1=udm7531.1.2 bus2=p1ulv33150.1.2 switch=n enabled=y phases=2 Linecode=1P_UG_AL_1/0_Brenau_0_416_0_2_2

New Line.l(r:p1ulv33887-udm7531) Units=km Length=0.018804 bus1=udm7531.1.2 bus2=p1ulv33887.1.2 switch=n enabled=y phases=2 Linecode=1P_UG_AL_1/0_Brenau_0_416_0_2_2

New Line.l(r:udm7531-udt1877lv) Units=km Length=0.0276781 bus1=udt1877lv.1.2 bus2=udm7531.1.2 switch=n enabled=y phases=2 Linecode=1P_UG_AL_1/0_Brenau_0_416_0_2_2

New Line.l(r:p1ulv32064-udt1878lv) Units=km Length=0.0186354 bus1=udt1878lv.1.2 bus2=p1ulv32064.1.2 switch=n enabled=y phases=2 Linecode=1P_UG_AL_1/0_Brenau_0_416_0_2_2

New Line.l(r:p1ulv4252-udm7535) Units=km Length=0.0213744 bus1=udm7535.1.2 bus2=p1ulv4252.1.2 switch=n enabled=y phases=2 Linecode=1P_UG_AL_1/0_Brenau_0_416_0_2_2

New Line.l(r:udm7535-udt1878lv) Units=km Length=0.00909633 bus1=udt1878lv.1.2 bus2=udm7535.1.2 switch=n enabled=y phases=2 Linecode=1P_UG_AL_1/0_Brenau_0_416_0_2_2

New Line.l(r:p1ulv43906-udm7537) Units=km Length=0.0338761 bus1=udm7537.1.2 bus2=p1ulv43906.1.2 switch=n enabled=y phases=2 Linecode=1P_UG_AL_1/0_Brenau_0_416_0_2_2

New Line.l(r:udm7537-udt1878lv) Units=km Length=0.0181949 bus1=udt1878lv.1.2 bus2=udm7537.1.2 switch=n enabled=y phases=2 Linecode=1P_UG_AL_1/0_Brenau_0_416_0_2_2

New Line.l(r:p1ulv4253-udt1879lv) Units=km Length=0.0201736 bus1=udt1879lv.1.2 bus2=p1ulv4253.1.2 switch=n enabled=y phases=2 Linecode=1P_UG_AL_1/0_Brenau_0_416_0_2_2

New Line.l(r:p1ulv33502-udt1879lv) Units=km Length=0.019192 bus1=udt1879lv.1.2 bus2=p1ulv33502.1.2 switch=n enabled=y phases=2 Linecode=1P_UG_AL_1/0_Brenau_0_416_0_2_2

New Line.l(r:p1ulv33732-udm7542) Units=km Length=0.0622215 bus1=udm7542.1.2 bus2=p1ulv33732.1.2 switch=n enabled=y phases=2 Linecode=1P_UG_AL_1/0_Brenau_0_416_0_2_2

New Line.l(r:p1ulv38285-udm7542) Units=km Length=0.0177125 bus1=udm7542.1.2 bus2=p1ulv38285.1.2 switch=n enabled=y phases=2 Linecode=1P_UG_AL_1/0_Brenau_0_416_0_2_2

New Line.l(r:udm7542-udt1879lv) Units=km Length=0.00999412 bus1=udt1879lv.1.2 bus2=udm7542.1.2 switch=n enabled=y phases=2 Linecode=1P_UG_AL_4/0_Sweetbriar_0_416_0_2_2

New Line.l(r:p1ulv40862-udm7544) Units=km Length=0.0185189 bus1=udm7544.1.2 bus2=p1ulv40862.1.2 switch=n enabled=y phases=2 Linecode=1P_UG_AL_1/0_Brenau_0_416_0_2_2

New Line.l(r:p1ulv26856-udm7539) Units=km Length=0.054030800000000004 bus1=udm7539.1.2 bus2=p1ulv26856.1.2 switch=n enabled=y phases=2 Linecode=1P_UG_AL_2/0_Converse_0_416_0_2_2

New Line.l(r:p1ulv27248-udm7540) Units=km Length=0.0188346 bus1=udm7540.1.2 bus2=p1ulv27248.1.2 switch=n enabled=y phases=2 Linecode=1P_UG_AL_1/0_Brenau_0_416_0_2_2

New Line.l(r:udm7539-udm7540) Units=km Length=0.00947647 bus1=udm7539.1.2 bus2=udm7540.1.2 switch=n enabled=y phases=2 Linecode=1P_UG_AL_1/0_Brenau_0_416_0_2_2

New Line.l(r:udm7539-udm7544) Units=km Length=0.00947647 bus1=udm7544.1.2 bus2=udm7539.1.2 switch=n enabled=y phases=2 Linecode=1P_UG_AL_4/0_Sweetbriar_0_416_0_2_2

New Line.l(r:udm7544-udt1879lv) Units=km Length=0.00947647 bus1=udt1879lv.1.2 bus2=udm7544.1.2 switch=n enabled=y phases=2 Linecode=1P_UG_AL_4/0_Sweetbriar_0_416_0_2_2

New Line.l(r:p1ulv4254-udt1880lv) Units=km Length=0.0169224 bus1=udt1880lv.1.2 bus2=p1ulv4254.1.2 switch=n enabled=y phases=2 Linecode=1P_UG_AL_1/0_Brenau_0_416_0_2_2

New Line.l(r:p1ulv39237-udm7548) Units=km Length=0.0199041 bus1=udm7548.1.2 bus2=p1ulv39237.1.2 switch=n enabled=y phases=2 Linecode=1P_UG_AL_1/0_Brenau_0_416_0_2_2

New Line.l(r:p1ulv31512-udm7546) Units=km Length=0.0158438 bus1=udm7546.1.2 bus2=p1ulv31512.1.2 switch=n enabled=y phases=2 Linecode=1P_UG_AL_1/0_Brenau_0_416_0_2_2

New Line.l(r:p1ulv47504-udm7546) Units=km Length=0.0198843 bus1=udm7546.1.2 bus2=p1ulv47504.1.2 switch=n enabled=y phases=2 Linecode=1P_UG_AL_1/0_Brenau_0_416_0_2_2

New Line.l(r:udm7546-udm7548) Units=km Length=0.008341530000000002 bus1=udm7548.1.2 bus2=udm7546.1.2 switch=n enabled=y phases=2 Linecode=1P_UG_AL_1/0_Brenau_0_416_0_2_2

New Line.l(r:udm7548-udt1880lv) Units=km Length=0.00858223 bus1=udt1880lv.1.2 bus2=udm7548.1.2 switch=n enabled=y phases=2 Linecode=1P_UG_AL_4/0_Sweetbriar_0_416_0_2_2

New Line.l(r:p1ulv45677-udm7549) Units=km Length=0.0211494 bus1=udm7549.1.2 bus2=p1ulv45677.1.2 switch=n enabled=y phases=2 Linecode=1P_UG_AL_1/0_Brenau_0_416_0_2_2

New Line.l(r:p1ulv36140-udm7547) Units=km Length=0.0151965 bus1=udm7547.1.2 bus2=p1ulv36140.1.2 switch=n enabled=y phases=2 Linecode=1P_UG_AL_1/0_Brenau_0_416_0_2_2

New Line.l(r:udm7547-udm7549) Units=km Length=0.00858223 bus1=udm7549.1.2 bus2=udm7547.1.2 switch=n enabled=y phases=2 Linecode=1P_UG_AL_1/0_Brenau_0_416_0_2_2

New Line.l(r:udm7549-udt1880lv) Units=km Length=0.00859114 bus1=udt1880lv.1.2 bus2=udm7549.1.2 switch=n enabled=y phases=2 Linecode=1P_UG_AL_1/0_Brenau_0_416_0_2_2

New Line.l(r:p1ulv4255-udt1881lv) Units=km Length=0.0159846 bus1=udt1881lv.1.2 bus2=p1ulv4255.1.2 switch=n enabled=y phases=2 Linecode=1P_OH_AL_2/0_Rucina_0_416_0_2_2

New Line.l(r:p1ulv4260-udm7552) Units=km Length=0.0231412 bus1=udm7552.1.2 bus2=p1ulv4260.1.2 switch=n enabled=y phases=2 Linecode=1P_OH_AL_2/0_Rucina_0_416_0_2_2

New Line.l(r:udm7552-udt1881lv) Units=km Length=0.0188915 bus1=udt1881lv.1.2 bus2=udm7552.1.2 switch=n enabled=y phases=2 Linecode=1P_OH_AL_2/0_Rucina_0_416_0_2_2

New Line.l(r:p1ulv28362-udm7553) Units=km Length=0.022017 bus1=udm7553.1.2 bus2=p1ulv28362.1.2 switch=n enabled=y phases=2 Linecode=1P_OH_AL_2/0_Rucina_0_416_0_2_2

New Line.l(r:udm7553-udt1881lv) Units=km Length=0.0188919 bus1=udt1881lv.1.2 bus2=udm7553.1.2 switch=n enabled=y phases=2 Linecode=1P_OH_AL_2/0_Rucina_0_416_0_2_2

New Line.l(r:p1ulv44174-udt1882lv) Units=km Length=0.0219918 bus1=udt1882lv.1.2 bus2=p1ulv44174.1.2 switch=n enabled=y phases=2 Linecode=1P_OH_AL_2/0_Rucina_0_416_0_2_2

New Line.l(r:p1ulv48857-udm7556) Units=km Length=0.0219967 bus1=udm7556.1.2 bus2=p1ulv48857.1.2 switch=n enabled=y phases=2 Linecode=1P_OH_AL_2/0_Rucina_0_416_0_2_2

New Line.l(r:udm7556-udt1882lv) Units=km Length=0.018881900000000004 bus1=udt1882lv.1.2 bus2=udm7556.1.2 switch=n enabled=y phases=2 Linecode=1P_OH_AL_2/0_Rucina_0_416_0_2_2

New Line.l(r:p1ulv50837-udm7557) Units=km Length=0.0189175 bus1=udm7557.1.2 bus2=p1ulv50837.1.2 switch=n enabled=y phases=2 Linecode=1P_OH_AL_2/0_Rucina_0_416_0_2_2

New Line.l(r:p1ulv50839-udm7558) Units=km Length=0.0255465 bus1=udm7558.1.2 bus2=p1ulv50839.1.2 switch=n enabled=y phases=2 Linecode=1P_OH_AL_2/0_Rucina_0_416_0_2_2

New Line.l(r:p1ulv4256-udm7554) Units=km Length=0.0214665 bus1=udm7554.1.2 bus2=p1ulv4256.1.2 switch=n enabled=y phases=2 Linecode=1P_OH_AL_2/0_Rucina_0_416_0_2_2

New Line.l(r:udm7554-udm7558) Units=km Length=0.0149809 bus1=udm7558.1.2 bus2=udm7554.1.2 switch=n enabled=y phases=2 Linecode=1P_OH_AL_2/0_Rucina_0_416_0_2_2

New Line.l(r:udm7557-udm7558) Units=km Length=0.0187896 bus1=udm7557.1.2 bus2=udm7558.1.2 switch=n enabled=y phases=2 Linecode=1P_OH_AL_2/0_Rucina_0_416_0_2_2

New Line.l(r:udm7557-udt1882lv) Units=km Length=0.0150522 bus1=udt1882lv.1.2 bus2=udm7557.1.2 switch=n enabled=y phases=2 Linecode=1P_OH_AL_2/0_Rucina_0_416_0_2_2

New Line.l(r:p1ulv4264-udt1886lv) Units=km Length=0.0226618 bus1=udt1886lv.1.2 bus2=p1ulv4264.1.2 switch=n enabled=y phases=2 Linecode=1P_OH_AL_2/0_Rucina_0_416_0_2_2

New Line.l(r:p1ulv36201-udt1886lv) Units=km Length=0.0171471 bus1=udt1886lv.1.2 bus2=p1ulv36201.1.2 switch=n enabled=y phases=2 Linecode=1P_OH_AL_2/0_Rucina_0_416_0_2_2

New Line.l(r:p1ulv4262-udm7579) Units=km Length=0.0164131 bus1=udm7579.1.2 bus2=p1ulv4262.1.2 switch=n enabled=y phases=2 Linecode=1P_OH_AL_2/0_Rucina_0_416_0_2_2

New Line.l(r:p1ulv4283-udm7581) Units=km Length=0.0190889 bus1=udm7581.1.2 bus2=p1ulv4283.1.2 switch=n enabled=y phases=2 Linecode=1P_OH_AL_2/0_Rucina_0_416_0_2_2

New Line.l(r:udm7579-udm7581) Units=km Length=0.0354023 bus1=udm7579.1.2 bus2=udm7581.1.2 switch=n enabled=y phases=2 Linecode=1P_OH_AL_4/0_Zuzara_0_416_0_2_2

New Line.l(r:udm7579-udt1886lv) Units=km Length=0.0176944 bus1=udt1886lv.1.2 bus2=udm7579.1.2 switch=n enabled=y phases=2 Linecode=1P_OH_AL_2/0_Rucina_0_416_0_2_2

New Line.l(r:p1ulv4294-udm7582) Units=km Length=0.0126696 bus1=udm7582.1.2 bus2=p1ulv4294.1.2 switch=n enabled=y phases=2 Linecode=1P_OH_AL_2/0_Rucina_0_416_0_2_2

New Line.l(r:p1ulv4296-udm7582) Units=km Length=0.0171161 bus1=udm7582.1.2 bus2=p1ulv4296.1.2 switch=n enabled=y phases=2 Linecode=1P_OH_AL_2/0_Rucina_0_416_0_2_2

New Line.l(r:p1ulv44348-udm7586) Units=km Length=0.0187535 bus1=udm7586.1.2 bus2=p1ulv44348.1.2 switch=n enabled=y phases=2 Linecode=1P_OH_AL_2/0_Rucina_0_416_0_2_2

New Line.l(r:p1ulv4297-udm7584) Units=km Length=0.0146317 bus1=udm7584.1.2 bus2=p1ulv4297.1.2 switch=n enabled=y phases=2 Linecode=1P_OH_AL_2/0_Rucina_0_416_0_2_2

New Line.l(r:udm7584-udm7586) Units=km Length=0.0189825 bus1=udm7586.1.2 bus2=udm7584.1.2 switch=n enabled=y phases=2 Linecode=1P_OH_AL_2/0_Rucina_0_416_0_2_2

New Line.l(r:udm7582-udm7586) Units=km Length=0.0123311 bus1=udm7582.1.2 bus2=udm7586.1.2 switch=n enabled=y phases=2 Linecode=1P_OH_AL_2/0_Rucina_0_416_0_2_2

New Line.l(r:udm7582-udt1886lv) Units=km Length=0.0123311 bus1=udt1886lv.1.2 bus2=udm7582.1.2 switch=n enabled=y phases=2 Linecode=1P_OH_AL_2/0_Rucina_0_416_0_2_2

New Line.l(r:p1ulv4266-udm7597) Units=km Length=0.0162934 bus1=udm7597.1.2 bus2=p1ulv4266.1.2 switch=n enabled=y phases=2 Linecode=1P_UG_AL_1/0_Brenau_0_416_0_2_2

New Line.l(r:p1ulv4268-udm7598) Units=km Length=0.0201383 bus1=udm7598.1.2 bus2=p1ulv4268.1.2 switch=n enabled=y phases=2 Linecode=1P_UG_AL_1/0_Brenau_0_416_0_2_2

New Line.l(r:udm7597-udm7598) Units=km Length=0.028499700000000003 bus1=udm7597.1.2 bus2=udm7598.1.2 switch=n enabled=y phases=2 Linecode=1P_UG_AL_1/0_Brenau_0_416_0_2_2

New Line.l(r:udm7597-udt1889lv) Units=km Length=0.00950443 bus1=udt1889lv.1.2 bus2=udm7597.1.2 switch=n enabled=y phases=2 Linecode=1P_UG_AL_1/0_Brenau_0_416_0_2_2

New Line.l(r:p1ulv26641-udm7599) Units=km Length=0.0164662 bus1=udm7599.1.2 bus2=p1ulv26641.1.2 switch=n enabled=y phases=2 Linecode=1P_UG_AL_1/0_Brenau_0_416_0_2_2

New Line.l(r:p1ulv37572-udm7599) Units=km Length=0.015817 bus1=udm7599.1.2 bus2=p1ulv37572.1.2 switch=n enabled=y phases=2 Linecode=1P_UG_AL_1/0_Brenau_0_416_0_2_2

New Line.l(r:udm7599-udt1889lv) Units=km Length=0.0417854 bus1=udt1889lv.1.2 bus2=udm7599.1.2 switch=n enabled=y phases=2 Linecode=1P_UG_AL_1/0_Brenau_0_416_0_2_2

New Line.l(r:p1ulv4273-udm7622) Units=km Length=0.0181262 bus1=udm7622.1.2 bus2=p1ulv4273.1.2 switch=n enabled=y phases=2 Linecode=1P_OH_AL_2/0_Rucina_0_416_0_2_2

New Line.l(r:udm7622-udt1894lv) Units=km Length=0.0176944 bus1=udt1894lv.1.2 bus2=udm7622.1.2 switch=n enabled=y phases=2 Linecode=1P_OH_AL_2/0_Rucina_0_416_0_2_2

New Line.l(r:p1ulv4286-udm7623) Units=km Length=0.0239375 bus1=udm7623.1.2 bus2=p1ulv4286.1.2 switch=n enabled=y phases=2 Linecode=1P_OH_AL_2/0_Rucina_0_416_0_2_2

New Line.l(r:p1ulv4299-udm7623) Units=km Length=0.016162 bus1=udm7623.1.2 bus2=p1ulv4299.1.2 switch=n enabled=y phases=2 Linecode=1P_OH_AL_2/0_Rucina_0_416_0_2_2

New Line.l(r:udm7623-udt1894lv) Units=km Length=0.0176944 bus1=udt1894lv.1.2 bus2=udm7623.1.2 switch=n enabled=y phases=2 Linecode=1P_OH_AL_2/0_Rucina_0_416_0_2_2

New Line.l(r:p1ulv4276-udt1897lv) Units=km Length=0.016812 bus1=udt1897lv.1.2 bus2=p1ulv4276.1.2 switch=n enabled=y phases=2 Linecode=1P_UG_AL_1/0_Brenau_0_416_0_2_2

New Line.l(r:p1ulv30513-udm7632) Units=km Length=0.020195 bus1=udm7632.1.2 bus2=p1ulv30513.1.2 switch=n enabled=y phases=2 Linecode=1P_UG_AL_1/0_Brenau_0_416_0_2_2

New Line.l(r:udm7632-udt1897lv) Units=km Length=0.0748474 bus1=udt1897lv.1.2 bus2=udm7632.1.2 switch=n enabled=y phases=2 Linecode=1P_UG_AL_1/0_Brenau_0_416_0_2_2

New Line.l(r:p1ulv36552-udm7633) Units=km Length=0.021332 bus1=udm7633.1.2 bus2=p1ulv36552.1.2 switch=n enabled=y phases=2 Linecode=1P_UG_AL_1/0_Brenau_0_416_0_2_2

New Line.l(r:udm7633-udt1897lv) Units=km Length=0.0182214 bus1=udt1897lv.1.2 bus2=udm7633.1.2 switch=n enabled=y phases=2 Linecode=1P_UG_AL_1/0_Brenau_0_416_0_2_2

New Line.l(r:p1ulv32204-udt2088lv) Units=km Length=0.0256747 bus1=udt2088lv.1.2 bus2=p1ulv32204.1.2 switch=n enabled=y phases=2 Linecode=1P_OH_AL_2/0_Rucina_0_416_0_2_2

New Line.l(r:p1ulv4673-udm8360) Units=km Length=0.0222504 bus1=udm8360.1.2 bus2=p1ulv4673.1.2 switch=n enabled=y phases=2 Linecode=1P_OH_AL_2/0_Rucina_0_416_0_2_2

New Line.l(r:p1ulv50722-udm8363) Units=km Length=0.022149 bus1=udm8363.1.2 bus2=p1ulv50722.1.2 switch=n enabled=y phases=2 Linecode=1P_OH_AL_2/0_Rucina_0_416_0_2_2

New Line.l(r:udm8360-udm8363) Units=km Length=0.0167141 bus1=udm8360.1.2 bus2=udm8363.1.2 switch=n enabled=y phases=2 Linecode=1P_OH_AL_2/0_Rucina_0_416_0_2_2

New Line.l(r:udm8360-udt2088lv) Units=km Length=0.0167041 bus1=udt2088lv.1.2 bus2=udm8360.1.2 switch=n enabled=y phases=2 Linecode=1P_OH_AL_2/0_Rucina_0_416_0_2_2

New Line.l(r:p1ulv38477-udm8362) Units=km Length=0.0238979 bus1=udm8362.1.2 bus2=p1ulv38477.1.2 switch=n enabled=y phases=2 Linecode=1P_OH_AL_2/0_Rucina_0_416_0_2_2

New Line.l(r:udm8362-udt2088lv) Units=km Length=0.0167041 bus1=udt2088lv.1.2 bus2=udm8362.1.2 switch=n enabled=y phases=2 Linecode=1P_OH_AL_2/0_Rucina_0_416_0_2_2

New Line.l(r:p1ulv4677-udt2092lv) Units=km Length=0.00892377 bus1=udt2092lv.1.2 bus2=p1ulv4677.1.2 switch=n enabled=y phases=2 Linecode=1P_UG_AL_1/0_Brenau_0_416_0_2_2

New Line.l(r:p1ulv4694-udt2092lv) Units=km Length=0.00998796 bus1=udt2092lv.1.2 bus2=p1ulv4694.1.2 switch=n enabled=y phases=2 Linecode=1P_UG_AL_1/0_Brenau_0_416_0_2_2

New Line.l(r:p1ulv4691-udm8376) Units=km Length=0.00900347 bus1=udm8376.1.2 bus2=p1ulv4691.1.2 switch=n enabled=y phases=2 Linecode=1P_UG_AL_1/0_Brenau_0_416_0_2_2

New Line.l(r:udm8376-udt2092lv) Units=km Length=0.0330686 bus1=udt2092lv.1.2 bus2=udm8376.1.2 switch=n enabled=y phases=2 Linecode=1P_UG_AL_1/0_Brenau_0_416_0_2_2

New Line.l(r:p1ulv4707-udm8378) Units=km Length=0.00984604 bus1=udm8378.1.2 bus2=p1ulv4707.1.2 switch=n enabled=y phases=2 Linecode=1P_UG_AL_1/0_Brenau_0_416_0_2_2

New Line.l(r:udm8378-udt2092lv) Units=km Length=0.0156406 bus1=udt2092lv.1.2 bus2=udm8378.1.2 switch=n enabled=y phases=2 Linecode=1P_UG_AL_1/0_Brenau_0_416_0_2_2

New Line.l(r:p1ulv4680-udm8379) Units=km Length=0.00978757 bus1=udm8379.1.2 bus2=p1ulv4680.1.2 switch=n enabled=y phases=2 Linecode=1P_UG_AL_1/0_Brenau_0_416_0_2_2

New Line.l(r:p1ulv4693-udm8379) Units=km Length=0.00938144 bus1=udm8379.1.2 bus2=p1ulv4693.1.2 switch=n enabled=y phases=2 Linecode=1P_UG_AL_1/0_Brenau_0_416_0_2_2

New Line.l(r:udm8379-udt2093lv) Units=km Length=0.0162304 bus1=udt2093lv.1.2 bus2=udm8379.1.2 switch=n enabled=y phases=2 Linecode=1P_UG_AL_2/0_Converse_0_416_0_2_2

New Line.l(r:p1ulv4692-udm8381) Units=km Length=0.010432200000000003 bus1=udm8381.1.2 bus2=p1ulv4692.1.2 switch=n enabled=y phases=2 Linecode=1P_UG_AL_1/0_Brenau_0_416_0_2_2

New Line.l(r:p1ulv4681-udm8380) Units=km Length=0.0091286 bus1=udm8380.1.2 bus2=p1ulv4681.1.2 switch=n enabled=y phases=2 Linecode=1P_UG_AL_1/0_Brenau_0_416_0_2_2

New Line.l(r:udm8380-udm8381) Units=km Length=0.006429 bus1=udm8381.1.2 bus2=udm8380.1.2 switch=n enabled=y phases=2 Linecode=1P_UG_AL_1/0_Brenau_0_416_0_2_2

New Line.l(r:udm8381-udt2093lv) Units=km Length=0.00641512 bus1=udt2093lv.1.2 bus2=udm8381.1.2 switch=n enabled=y phases=2 Linecode=1P_UG_AL_2/0_Converse_0_416_0_2_2

New Line.l(r:p1ulv4686-udt2098lv) Units=km Length=0.00986164 bus1=udt2098lv.1.2 bus2=p1ulv4686.1.2 switch=n enabled=y phases=2 Linecode=1P_UG_AL_1/0_Brenau_0_416_0_2_2

New Line.l(r:p1ulv4687-udm8400) Units=km Length=0.0100236 bus1=udm8400.1.2 bus2=p1ulv4687.1.2 switch=n enabled=y phases=2 Linecode=1P_UG_AL_1/0_Brenau_0_416_0_2_2

New Line.l(r:p1ulv4708-udm8404) Units=km Length=0.008675210000000001 bus1=udm8404.1.2 bus2=p1ulv4708.1.2 switch=n enabled=y phases=2 Linecode=1P_UG_AL_1/0_Brenau_0_416_0_2_2

New Line.l(r:p1ulv4705-udm8403) Units=km Length=0.007521100000000001 bus1=udm8403.1.2 bus2=p1ulv4705.1.2 switch=n enabled=y phases=2 Linecode=1P_UG_AL_1/0_Brenau_0_416_0_2_2

New Line.l(r:udm8403-udm8404) Units=km Length=0.0307653 bus1=udm8404.1.2 bus2=udm8403.1.2 switch=n enabled=y phases=2 Linecode=1P_UG_AL_1/0_Brenau_0_416_0_2_2

New Line.l(r:udm8400-udm8404) Units=km Length=0.00776096 bus1=udm8400.1.2 bus2=udm8404.1.2 switch=n enabled=y phases=2 Linecode=1P_UG_AL_2/0_Converse_0_416_0_2_2

New Line.l(r:udm8400-udt2098lv) Units=km Length=0.007761700000000001 bus1=udt2098lv.1.2 bus2=udm8400.1.2 switch=n enabled=y phases=2 Linecode=1P_UG_AL_4/0_Sweetbriar_0_416_0_2_2

New Line.l(r:p1ulv4703-udm8402) Units=km Length=0.008104620000000002 bus1=udm8402.1.2 bus2=p1ulv4703.1.2 switch=n enabled=y phases=2 Linecode=1P_UG_AL_1/0_Brenau_0_416_0_2_2

New Line.l(r:p1ulv4699-udm8401) Units=km Length=0.00881419 bus1=udm8401.1.2 bus2=p1ulv4699.1.2 switch=n enabled=y phases=2 Linecode=1P_UG_AL_1/0_Brenau_0_416_0_2_2

New Line.l(r:udm8401-udm8402) Units=km Length=0.015076800000000001 bus1=udm8402.1.2 bus2=udm8401.1.2 switch=n enabled=y phases=2 Linecode=1P_UG_AL_1/0_Brenau_0_416_0_2_2

New Line.l(r:udm8402-udt2098lv) Units=km Length=0.013472700000000002 bus1=udt2098lv.1.2 bus2=udm8402.1.2 switch=n enabled=y phases=2 Linecode=1P_UG_AL_2/0_Converse_0_416_0_2_2

New Line.l(r:p1ulv4689-udt2099lv) Units=km Length=0.0092851 bus1=udt2099lv.1.2 bus2=p1ulv4689.1.2 switch=n enabled=y phases=2 Linecode=1P_UG_AL_1/0_Brenau_0_416_0_2_2

New Line.l(r:p1ulv4702-udm8406) Units=km Length=0.0071707 bus1=udm8406.1.2 bus2=p1ulv4702.1.2 switch=n enabled=y phases=2 Linecode=1P_UG_AL_1/0_Brenau_0_416_0_2_2

New Line.l(r:p1ulv4713-udm8406) Units=km Length=0.00982133 bus1=udm8406.1.2 bus2=p1ulv4713.1.2 switch=n enabled=y phases=2 Linecode=1P_UG_AL_1/0_Brenau_0_416_0_2_2

New Line.l(r:p1ulv50946-udm8410) Units=km Length=0.014937 bus1=udm8410.1.2 bus2=p1ulv50946.1.2 switch=n enabled=y phases=2 Linecode=1P_UG_AL_4/0_Sweetbriar_0_416_0_2_2

New Line.l(r:udm8406-udm8410) Units=km Length=0.0471794 bus1=udm8406.1.2 bus2=udm8410.1.2 switch=n enabled=y phases=2 Linecode=1P_UG_AL_4/0_Sweetbriar_0_416_0_2_2

New Line.l(r:udm8406-udt2099lv) Units=km Length=0.00911017 bus1=udt2099lv.1.2 bus2=udm8406.1.2 switch=n enabled=y phases=2 Linecode=1P_UG_AL_4/0_Sweetbriar_0_416_0_2_2

New Line.l(r:p1ulv4711-udm8407) Units=km Length=0.0150742 bus1=udm8407.1.2 bus2=p1ulv4711.1.2 switch=n enabled=y phases=2 Linecode=1P_UG_AL_1/0_Brenau_0_416_0_2_2

New Line.l(r:p1ulv4712-udm8407) Units=km Length=0.013840200000000002 bus1=udm8407.1.2 bus2=p1ulv4712.1.2 switch=n enabled=y phases=2 Linecode=1P_UG_AL_1/0_Brenau_0_416_0_2_2

New Line.l(r:udm8407-udt2099lv) Units=km Length=0.0182203 bus1=udt2099lv.1.2 bus2=udm8407.1.2 switch=n enabled=y phases=2 Linecode=1P_UG_AL_2/0_Converse_0_416_0_2_2

New Line.l(r:p1ulv4690-udm8411) Units=km Length=0.0075586 bus1=udm8411.1.2 bus2=p1ulv4690.1.2 switch=n enabled=y phases=2 Linecode=1P_UG_AL_1/0_Brenau_0_416_0_2_2

New Line.l(r:p1ulv41020-udm8411) Units=km Length=0.0097376 bus1=udm8411.1.2 bus2=p1ulv41020.1.2 switch=n enabled=y phases=2 Linecode=1P_UG_AL_1/0_Brenau_0_416_0_2_2

New Line.l(r:udm8411-udt2100lv) Units=km Length=0.016056 bus1=udt2100lv.1.2 bus2=udm8411.1.2 switch=n enabled=y phases=2 Linecode=1P_UG_AL_4/0_Sweetbriar_0_416_0_2_2

New Line.l(r:p1ulv32132-udm8412) Units=km Length=0.00867785 bus1=udm8412.1.2 bus2=p1ulv32132.1.2 switch=n enabled=y phases=2 Linecode=1P_UG_AL_1/0_Brenau_0_416_0_2_2

New Line.l(r:udm8412-udt2100lv) Units=km Length=0.0314952 bus1=udt2100lv.1.2 bus2=udm8412.1.2 switch=n enabled=y phases=2 Linecode=1P_UG_AL_1/0_Brenau_0_416_0_2_2

New Line.l(r:p1ulv4695-udt2101lv) Units=km Length=0.009454030000000002 bus1=udt2101lv.1.2 bus2=p1ulv4695.1.2 switch=n enabled=y phases=2 Linecode=1P_UG_AL_1/0_Brenau_0_416_0_2_2

New Line.l(r:p1ulv4697-udt2101lv) Units=km Length=0.008902950000000001 bus1=udt2101lv.1.2 bus2=p1ulv4697.1.2 switch=n enabled=y phases=2 Linecode=1P_UG_AL_1/0_Brenau_0_416_0_2_2

New Line.l(r:p1ulv4698-udm8417) Units=km Length=0.010557700000000001 bus1=udm8417.1.2 bus2=p1ulv4698.1.2 switch=n enabled=y phases=2 Linecode=1P_UG_AL_1/0_Brenau_0_416_0_2_2

New Line.l(r:p1ulv4696-udm8416) Units=km Length=0.010563 bus1=udm8416.1.2 bus2=p1ulv4696.1.2 switch=n enabled=y phases=2 Linecode=1P_UG_AL_1/0_Brenau_0_416_0_2_2

New Line.l(r:udm8416-udm8417) Units=km Length=0.0188215 bus1=udm8417.1.2 bus2=udm8416.1.2 switch=n enabled=y phases=2 Linecode=1P_UG_AL_1/0_Brenau_0_416_0_2_2

New Line.l(r:udm8417-udt2102lv) Units=km Length=0.0353312 bus1=udt2102lv.1.2 bus2=udm8417.1.2 switch=n enabled=y phases=2 Linecode=1P_UG_AL_2/0_Converse_0_416_0_2_2

New Line.l(r:p1ulv4709-udm8418) Units=km Length=0.0156517 bus1=udm8418.1.2 bus2=p1ulv4709.1.2 switch=n enabled=y phases=2 Linecode=1P_UG_AL_1/0_Brenau_0_416_0_2_2

New Line.l(r:p1ulv4724-udm8418) Units=km Length=0.0133618 bus1=udm8418.1.2 bus2=p1ulv4724.1.2 switch=n enabled=y phases=2 Linecode=1P_UG_AL_1/0_Brenau_0_416_0_2_2

New Line.l(r:p1ulv4725-udm8418) Units=km Length=0.0163701 bus1=udm8418.1.2 bus2=p1ulv4725.1.2 switch=n enabled=y phases=2 Linecode=1P_UG_AL_1/0_Brenau_0_416_0_2_2

New Line.l(r:udm8418-udt2102lv) Units=km Length=0.0219033 bus1=udt2102lv.1.2 bus2=udm8418.1.2 switch=n enabled=y phases=2 Linecode=1P_UG_AL_4/0_Sweetbriar_0_416_0_2_2

New Line.l(r:p1ulv4715-udt2103lv) Units=km Length=0.0103107 bus1=udt2103lv.1.2 bus2=p1ulv4715.1.2 switch=n enabled=y phases=2 Linecode=1P_UG_AL_1/0_Brenau_0_416_0_2_2

New Line.l(r:p1ulv4706-udm8422) Units=km Length=0.008539 bus1=udm8422.1.2 bus2=p1ulv4706.1.2 switch=n enabled=y phases=2 Linecode=1P_UG_AL_1/0_Brenau_0_416_0_2_2

New Line.l(r:p1ulv4721-udm8425) Units=km Length=0.0102966 bus1=udm8425.1.2 bus2=p1ulv4721.1.2 switch=n enabled=y phases=2 Linecode=1P_UG_AL_1/0_Brenau_0_416_0_2_2

New Line.l(r:p1ulv4700-udm8421) Units=km Length=0.0103335 bus1=udm8421.1.2 bus2=p1ulv4700.1.2 switch=n enabled=y phases=2 Linecode=1P_UG_AL_1/0_Brenau_0_416_0_2_2

New Line.l(r:udm8421-udm8425) Units=km Length=0.00785749 bus1=udm8425.1.2 bus2=udm8421.1.2 switch=n enabled=y phases=2 Linecode=1P_UG_AL_1/0_Brenau_0_416_0_2_2

New Line.l(r:udm8422-udm8425) Units=km Length=0.00786489 bus1=udm8422.1.2 bus2=udm8425.1.2 switch=n enabled=y phases=2 Linecode=1P_UG_AL_2/0_Converse_0_416_0_2_2

New Line.l(r:udm8422-udt2103lv) Units=km Length=0.00966102 bus1=udt2103lv.1.2 bus2=udm8422.1.2 switch=n enabled=y phases=2 Linecode=1P_UG_AL_4/0_Sweetbriar_0_416_0_2_2

New Line.l(r:p1ulv4716-udm8424) Units=km Length=0.00680523 bus1=udm8424.1.2 bus2=p1ulv4716.1.2 switch=n enabled=y phases=2 Linecode=1P_UG_AL_1/0_Brenau_0_416_0_2_2

New Line.l(r:udm8424-udt2103lv) Units=km Length=0.03616500000000001 bus1=udt2103lv.1.2 bus2=udm8424.1.2 switch=n enabled=y phases=2 Linecode=1P_UG_AL_1/0_Brenau_0_416_0_2_2

New Line.l(r:p1ulv4710-udt2104lv) Units=km Length=0.0109653 bus1=udt2104lv.1.2 bus2=p1ulv4710.1.2 switch=n enabled=y phases=2 Linecode=1P_UG_AL_1/0_Brenau_0_416_0_2_2

New Line.l(r:p1ulv4704-udm8427) Units=km Length=0.00996763 bus1=udm8427.1.2 bus2=p1ulv4704.1.2 switch=n enabled=y phases=2 Linecode=1P_UG_AL_1/0_Brenau_0_416_0_2_2

New Line.l(r:p1ulv4729-udm8430) Units=km Length=0.010052800000000002 bus1=udm8430.1.2 bus2=p1ulv4729.1.2 switch=n enabled=y phases=2 Linecode=1P_UG_AL_1/0_Brenau_0_416_0_2_2

New Line.l(r:udm8427-udm8430) Units=km Length=0.00681237 bus1=udm8427.1.2 bus2=udm8430.1.2 switch=n enabled=y phases=2 Linecode=1P_UG_AL_1/0_Brenau_0_416_0_2_2

New Line.l(r:udm8427-udt2104lv) Units=km Length=0.0190053 bus1=udt2104lv.1.2 bus2=udm8427.1.2 switch=n enabled=y phases=2 Linecode=1P_UG_AL_2/0_Converse_0_416_0_2_2

New Line.l(r:p1ulv4728-udm8429) Units=km Length=0.00876181 bus1=udm8429.1.2 bus2=p1ulv4728.1.2 switch=n enabled=y phases=2 Linecode=1P_UG_AL_1/0_Brenau_0_416_0_2_2

New Line.l(r:p1ulv4701-udm8426) Units=km Length=0.007563280000000001 bus1=udm8426.1.2 bus2=p1ulv4701.1.2 switch=n enabled=y phases=2 Linecode=1P_UG_AL_1/0_Brenau_0_416_0_2_2

New Line.l(r:udm8426-udm8429) Units=km Length=0.010475 bus1=udm8429.1.2 bus2=udm8426.1.2 switch=n enabled=y phases=2 Linecode=1P_UG_AL_1/0_Brenau_0_416_0_2_2

New Line.l(r:udm8429-udt2104lv) Units=km Length=0.0146288 bus1=udt2104lv.1.2 bus2=udm8429.1.2 switch=n enabled=y phases=2 Linecode=1P_UG_AL_2/0_Converse_0_416_0_2_2

New Line.l(r:p1ulv28566-udt2105lv) Units=km Length=0.019917200000000003 bus1=udt2105lv.1.2 bus2=p1ulv28566.1.2 switch=n enabled=y phases=2 Linecode=1P_UG_AL_1/0_Brenau_0_416_0_2_2

New Line.l(r:p1ulv42946-udt2105lv) Units=km Length=0.0170421 bus1=udt2105lv.1.2 bus2=p1ulv42946.1.2 switch=n enabled=y phases=2 Linecode=1P_UG_AL_1/0_Brenau_0_416_0_2_2

New Line.l(r:p1ulv29411-udm8433) Units=km Length=0.0180943 bus1=udm8433.1.2 bus2=p1ulv29411.1.2 switch=n enabled=y phases=2 Linecode=1P_UG_AL_1/0_Brenau_0_416_0_2_2

New Line.l(r:p1ulv4714-udm8431) Units=km Length=0.0220819 bus1=udm8431.1.2 bus2=p1ulv4714.1.2 switch=n enabled=y phases=2 Linecode=1P_UG_AL_1/0_Brenau_0_416_0_2_2

New Line.l(r:p1ulv30364-udm8431) Units=km Length=0.0217975 bus1=udm8431.1.2 bus2=p1ulv30364.1.2 switch=n enabled=y phases=2 Linecode=1P_UG_AL_1/0_Brenau_0_416_0_2_2

New Line.l(r:udm8431-udm8433) Units=km Length=0.00942613 bus1=udm8433.1.2 bus2=udm8431.1.2 switch=n enabled=y phases=2 Linecode=1P_UG_AL_1/0_Brenau_0_416_0_2_2

New Line.l(r:udm8433-udt2105lv) Units=km Length=0.00949831 bus1=udt2105lv.1.2 bus2=udm8433.1.2 switch=n enabled=y phases=2 Linecode=1P_UG_AL_2/0_Converse_0_416_0_2_2

New Line.l(r:p1ulv31766-udm8435) Units=km Length=0.023742000000000003 bus1=udm8435.1.2 bus2=p1ulv31766.1.2 switch=n enabled=y phases=2 Linecode=1P_UG_AL_1/0_Brenau_0_416_0_2_2

New Line.l(r:p1ulv39313-udm8436) Units=km Length=0.0168603 bus1=udm8436.1.2 bus2=p1ulv39313.1.2 switch=n enabled=y phases=2 Linecode=1P_UG_AL_1/0_Brenau_0_416_0_2_2

New Line.l(r:udm8435-udm8436) Units=km Length=0.00949831 bus1=udm8435.1.2 bus2=udm8436.1.2 switch=n enabled=y phases=2 Linecode=1P_UG_AL_1/0_Brenau_0_416_0_2_2

New Line.l(r:udm8435-udt2105lv) Units=km Length=0.0190064 bus1=udt2105lv.1.2 bus2=udm8435.1.2 switch=n enabled=y phases=2 Linecode=1P_UG_AL_1/0_Brenau_0_416_0_2_2

New Line.l(r:p1ulv37823-udt2110lv) Units=km Length=0.016972300000000003 bus1=udt2110lv.1.2 bus2=p1ulv37823.1.2 switch=n enabled=y phases=2 Linecode=1P_UG_AL_1/0_Brenau_0_416_0_2_2

New Line.l(r:p1ulv31582-udm8452) Units=km Length=0.00883353 bus1=udm8452.1.2 bus2=p1ulv31582.1.2 switch=n enabled=y phases=2 Linecode=1P_UG_AL_1/0_Brenau_0_416_0_2_2

New Line.l(r:p1ulv49041-udm8452) Units=km Length=0.0119626 bus1=udm8452.1.2 bus2=p1ulv49041.1.2 switch=n enabled=y phases=2 Linecode=1P_UG_AL_1/0_Brenau_0_416_0_2_2

New Line.l(r:p1ulv4722-udm8450) Units=km Length=0.0169612 bus1=udm8450.1.2 bus2=p1ulv4722.1.2 switch=n enabled=y phases=2 Linecode=1P_UG_AL_1/0_Brenau_0_416_0_2_2

New Line.l(r:udm8450-udm8452) Units=km Length=0.0809487 bus1=udm8452.1.2 bus2=udm8450.1.2 switch=n enabled=y phases=2 Linecode=1P_UG_AL_1/0_Brenau_0_416_0_2_2

New Line.l(r:udm8452-udt2110lv) Units=km Length=0.0471329 bus1=udt2110lv.1.2 bus2=udm8452.1.2 switch=n enabled=y phases=2 Linecode=1P_UG_AL_2/0_Converse_0_416_0_2_2

New Line.l(r:p1ulv37167-udm8455) Units=km Length=0.019578 bus1=udm8455.1.2 bus2=p1ulv37167.1.2 switch=n enabled=y phases=2 Linecode=1P_UG_AL_1/0_Brenau_0_416_0_2_2

New Line.l(r:p1ulv31220-udm8451) Units=km Length=0.0167461 bus1=udm8451.1.2 bus2=p1ulv31220.1.2 switch=n enabled=y phases=2 Linecode=1P_UG_AL_1/0_Brenau_0_416_0_2_2

New Line.l(r:p1ulv34435-udm8453) Units=km Length=0.0168456 bus1=udm8453.1.2 bus2=p1ulv34435.1.2 switch=n enabled=y phases=2 Linecode=1P_UG_AL_1/0_Brenau_0_416_0_2_2

New Line.l(r:p1ulv35405-udm8453) Units=km Length=0.0224409 bus1=udm8453.1.2 bus2=p1ulv35405.1.2 switch=n enabled=y phases=2 Linecode=1P_UG_AL_1/0_Brenau_0_416_0_2_2

New Line.l(r:udm8451-udm8453) Units=km Length=0.0188523 bus1=udm8451.1.2 bus2=udm8453.1.2 switch=n enabled=y phases=2 Linecode=1P_UG_AL_1/0_Brenau_0_416_0_2_2

New Line.l(r:udm8451-udm8455) Units=km Length=0.00942841 bus1=udm8455.1.2 bus2=udm8451.1.2 switch=n enabled=y phases=2 Linecode=1P_UG_AL_2/0_Converse_0_416_0_2_2

New Line.l(r:udm8455-udt2110lv) Units=km Length=0.00942613 bus1=udt2110lv.1.2 bus2=udm8455.1.2 switch=n enabled=y phases=2 Linecode=1P_UG_AL_4/0_Sweetbriar_0_416_0_2_2

New Line.l(r:p1ulv4726-udm8458) Units=km Length=0.0231285 bus1=udm8458.1.2 bus2=p1ulv4726.1.2 switch=n enabled=y phases=2 Linecode=1P_UG_AL_1/0_Brenau_0_416_0_2_2

New Line.l(r:p1ulv29762-udm8458) Units=km Length=0.0170297 bus1=udm8458.1.2 bus2=p1ulv29762.1.2 switch=n enabled=y phases=2 Linecode=1P_UG_AL_1/0_Brenau_0_416_0_2_2

New Line.l(r:udm8458-udt2111lv) Units=km Length=0.00723418 bus1=udt2111lv.1.2 bus2=udm8458.1.2 switch=n enabled=y phases=2 Linecode=1P_UG_AL_1/0_Brenau_0_416_0_2_2

New Line.l(r:p1ulv4727-udm8459) Units=km Length=0.020755400000000004 bus1=udm8459.1.2 bus2=p1ulv4727.1.2 switch=n enabled=y phases=2 Linecode=1P_UG_AL_1/0_Brenau_0_416_0_2_2
