New Transformer.tr(r:udt340-udt340lv) phases=3 windings=2 %loadloss=2.1568 %Noloadloss=0.516667 normhkva=165.0 wdg=1 conn=wye Kv=12.47 kva=150.0 EmergHKVA=225.0 %R=1.0784 bus=udt340 wdg=2 conn=wye Kv=0.48 kva=150.0 EmergHKVA=225.0 %R=1.0784 bus=udt340lv XHL=3.39

New Transformer.tr(r:udt341-udt341lv) phases=3 windings=2 %loadloss=1.74408 %Noloadloss=0.6 normhkva=82.5 wdg=1 conn=wye Kv=12.47 kva=75.0 EmergHKVA=112.5 %R=0.87204 bus=udt341 wdg=2 conn=wye Kv=0.48 kva=75.0 EmergHKVA=112.5 %R=0.87204 bus=udt341lv XHL=3.2400000000000007

New Transformer.tr(r:udt1877-udt1877lv) phases=1 windings=3 %loadloss=0.798816 %Noloadloss=0.37 normhkva=55.0 wdg=1 conn=wye bus=udt1877.2 Kv=7.199560000000001 kva=50.0 EmergHKVA=75.0 %r=0.266272 wdg=2 conn=wye bus=udt1877lv.1.0 Kv=0.120089 kva=50.0 EmergHKVA=75.0 %r=0.532544 wdg=3 conn=wye bus=udt1877lv.0.2 Kv=0.120089 kva=50.0 EmergHKVA=75.0 %r=0.532544 XHL=2.4 XLT=2.4 XHT=1.6

New Transformer.tr(r:udt1878-udt1878lv) phases=1 windings=3 %loadloss=0.798816 %Noloadloss=0.472 normhkva=27.5 wdg=1 conn=wye bus=udt1878.3 Kv=7.199560000000001 kva=25.0 EmergHKVA=37.5 %r=0.266272 wdg=2 conn=wye bus=udt1878lv.1.0 Kv=0.120089 kva=25.0 EmergHKVA=37.5 %r=0.532544 wdg=3 conn=wye bus=udt1878lv.0.2 Kv=0.120089 kva=25.0 EmergHKVA=37.5 %r=0.532544 XHL=2.4 XLT=2.4 XHT=1.6

New Transformer.tr(r:udt1879-udt1879lv) phases=1 windings=3 %loadloss=0.49926 %Noloadloss=0.38 normhkva=82.5 wdg=1 conn=wye bus=udt1879.1 Kv=7.199560000000001 kva=75.0 EmergHKVA=112.5 %r=0.16642 wdg=2 conn=wye bus=udt1879lv.1.0 Kv=0.120089 kva=75.0 EmergHKVA=112.5 %r=0.33284 wdg=3 conn=wye bus=udt1879lv.0.2 Kv=0.120089 kva=75.0 EmergHKVA=112.5 %r=0.33284 XHL=2.4 XLT=2.4 XHT=1.6

New Transformer.tr(r:udt1880-udt1880lv) phases=1 windings=3 %loadloss=0.798816 %Noloadloss=0.37 normhkva=55.0 wdg=1 conn=wye bus=udt1880.3 Kv=7.199560000000001 kva=50.0 EmergHKVA=75.0 %r=0.266272 wdg=2 conn=wye bus=udt1880lv.1.0 Kv=0.120089 kva=50.0 EmergHKVA=75.0 %r=0.532544 wdg=3 conn=wye bus=udt1880lv.0.2 Kv=0.120089 kva=50.0 EmergHKVA=75.0 %r=0.532544 XHL=2.4 XLT=2.4 XHT=1.6

New Transformer.tr(r:udt1881-udt1881lv) phases=1 windings=3 %loadloss=0.798816 %Noloadloss=0.472 normhkva=27.5 wdg=1 conn=wye bus=udt1881.2 Kv=7.199560000000001 kva=25.0 EmergHKVA=37.5 %r=0.266272 wdg=2 conn=wye bus=udt1881lv.1.0 Kv=0.120089 kva=25.0 EmergHKVA=37.5 %r=0.532544 wdg=3 conn=wye bus=udt1881lv.0.2 Kv=0.120089 kva=25.0 EmergHKVA=37.5 %r=0.532544 XHL=2.4 XLT=2.4 XHT=1.6

New Transformer.tr(r:udt1882-udt1882lv) phases=1 windings=3 %loadloss=0.798816 %Noloadloss=0.37 normhkva=55.0 wdg=1 conn=wye bus=udt1882.1 Kv=7.199560000000001 kva=50.0 EmergHKVA=75.0 %r=0.266272 wdg=2 conn=wye bus=udt1882lv.1.0 Kv=0.120089 kva=50.0 EmergHKVA=75.0 %r=0.532544 wdg=3 conn=wye bus=udt1882lv.0.2 Kv=0.120089 kva=50.0 EmergHKVA=75.0 %r=0.532544 XHL=2.4 XLT=2.4 XHT=1.6

New Transformer.tr(r:udt1886-udt1886lv) phases=1 windings=3 %loadloss=0.49926 %Noloadloss=0.38 normhkva=82.5 wdg=1 conn=wye bus=udt1886.2 Kv=7.199560000000001 kva=75.0 EmergHKVA=112.5 %r=0.16642 wdg=2 conn=wye bus=udt1886lv.1.0 Kv=0.120089 kva=75.0 EmergHKVA=112.5 %r=0.33284 wdg=3 conn=wye bus=udt1886lv.0.2 Kv=0.120089 kva=75.0 EmergHKVA=112.5 %r=0.33284 XHL=2.4 XLT=2.4 XHT=1.6

New Transformer.tr(r:udt1889-udt1889lv) phases=1 windings=3 %loadloss=0.798816 %Noloadloss=0.472 normhkva=27.5 wdg=1 conn=wye bus=udt1889.3 Kv=7.199560000000001 kva=25.0 EmergHKVA=37.5 %r=0.266272 wdg=2 conn=wye bus=udt1889lv.1.0 Kv=0.120089 kva=25.0 EmergHKVA=37.5 %r=0.532544 wdg=3 conn=wye bus=udt1889lv.0.2 Kv=0.120089 kva=25.0 EmergHKVA=37.5 %r=0.532544 XHL=2.4 XLT=2.4 XHT=1.6

New Transformer.tr(r:udt1894-udt1894lv) phases=1 windings=3 %loadloss=0.798816 %Noloadloss=0.472 normhkva=27.5 wdg=1 conn=wye bus=udt1894.2 Kv=7.199560000000001 kva=25.0 EmergHKVA=37.5 %r=0.266272 wdg=2 conn=wye bus=udt1894lv.1.0 Kv=0.120089 kva=25.0 EmergHKVA=37.5 %r=0.532544 wdg=3 conn=wye bus=udt1894lv.0.2 Kv=0.120089 kva=25.0 EmergHKVA=37.5 %r=0.532544 XHL=2.4 XLT=2.4 XHT=1.6

New Transformer.tr(r:udt1897-udt1897lv) phases=1 windings=3 %loadloss=0.798816 %Noloadloss=0.472 normhkva=27.5 wdg=1 conn=wye bus=udt1897.1 Kv=7.199560000000001 kva=25.0 EmergHKVA=37.5 %r=0.266272 wdg=2 conn=wye bus=udt1897lv.1.0 Kv=0.120089 kva=25.0 EmergHKVA=37.5 %r=0.532544 wdg=3 conn=wye bus=udt1897lv.0.2 Kv=0.120089 kva=25.0 EmergHKVA=37.5 %r=0.532544 XHL=2.4 XLT=2.4 XHT=1.6

New Transformer.tr(r:udt2088-udt2088lv) phases=1 windings=3 %loadloss=0.798816 %Noloadloss=0.472 normhkva=27.5 wdg=1 conn=wye bus=udt2088.2 Kv=7.199560000000001 kva=25.0 EmergHKVA=37.5 %r=0.266272 wdg=2 conn=wye bus=udt2088lv.1.0 Kv=0.120089 kva=25.0 EmergHKVA=37.5 %r=0.532544 wdg=3 conn=wye bus=udt2088lv.0.2 Kv=0.120089 kva=25.0 EmergHKVA=37.5 %r=0.532544 XHL=2.4 XLT=2.4 XHT=1.6

New Transformer.tr(r:udt2092-udt2092lv) phases=1 windings=3 %loadloss=0.798816 %Noloadloss=0.37 normhkva=55.0 wdg=1 conn=wye bus=udt2092.1 Kv=7.199560000000001 kva=50.0 EmergHKVA=75.0 %r=0.266272 wdg=2 conn=wye bus=udt2092lv.1.0 Kv=0.120089 kva=50.0 EmergHKVA=75.0 %r=0.532544 wdg=3 conn=wye bus=udt2092lv.0.2 Kv=0.120089 kva=50.0 EmergHKVA=75.0 %r=0.532544 XHL=2.4 XLT=2.4 XHT=1.6

New Transformer.tr(r:udt2093-udt2093lv) phases=1 windings=3 %loadloss=0.798816 %Noloadloss=0.37 normhkva=55.0 wdg=1 conn=wye bus=udt2093.1 Kv=7.199560000000001 kva=50.0 EmergHKVA=75.0 %r=0.266272 wdg=2 conn=wye bus=udt2093lv.1.0 Kv=0.120089 kva=50.0 EmergHKVA=75.0 %r=0.532544 wdg=3 conn=wye bus=udt2093lv.0.2 Kv=0.120089 kva=50.0 EmergHKVA=75.0 %r=0.532544 XHL=2.4 XLT=2.4 XHT=1.6

New Transformer.tr(r:udt2098-udt2098lv) phases=1 windings=3 %loadloss=0.49926 %Noloadloss=0.38 normhkva=82.5 wdg=1 conn=wye bus=udt2098.1 Kv=7.199560000000001 kva=75.0 EmergHKVA=112.5 %r=0.16642 wdg=2 conn=wye bus=udt2098lv.1.0 Kv=0.120089 kva=75.0 EmergHKVA=112.5 %r=0.33284 wdg=3 conn=wye bus=udt2098lv.0.2 Kv=0.120089 kva=75.0 EmergHKVA=112.5 %r=0.33284 XHL=2.4 XLT=2.4 XHT=1.6

New Transformer.tr(r:udt2099-udt2099lv) phases=1 windings=3 %loadloss=0.49926 %Noloadloss=0.38 normhkva=82.5 wdg=1 conn=wye bus=udt2099.2 Kv=7.199560000000001 kva=75.0 EmergHKVA=112.5 %r=0.16642 wdg=2 conn=wye bus=udt2099lv.1.0 Kv=0.120089 kva=75.0 EmergHKVA=112.5 %r=0.33284 wdg=3 conn=wye bus=udt2099lv.0.2 Kv=0.120089 kva=75.0 EmergHKVA=112.5 %r=0.33284 XHL=2.4 XLT=2.4 XHT=1.6

New Transformer.tr(r:udt2100-udt2100lv) phases=1 windings=3 %loadloss=0.798816 %Noloadloss=0.37 normhkva=55.0 wdg=1 conn=wye bus=udt2100.3 Kv=7.199560000000001 kva=50.0 EmergHKVA=75.0 %r=0.266272 wdg=2 conn=wye bus=udt2100lv.1.0 Kv=0.120089 kva=50.0 EmergHKVA=75.0 %r=0.532544 wdg=3 conn=wye bus=udt2100lv.0.2 Kv=0.120089 kva=50.0 EmergHKVA=75.0 %r=0.532544 XHL=2.4 XLT=2.4 XHT=1.6

New Transformer.tr(r:udt2101-udt2101lv) phases=1 windings=3 %loadloss=0.798816 %Noloadloss=0.472 normhkva=27.5 wdg=1 conn=wye bus=udt2101.1 Kv=7.199560000000001 kva=25.0 EmergHKVA=37.5 %r=0.266272 wdg=2 conn=wye bus=udt2101lv.1.0 Kv=0.120089 kva=25.0 EmergHKVA=37.5 %r=0.532544 wdg=3 conn=wye bus=udt2101lv.0.2 Kv=0.120089 kva=25.0 EmergHKVA=37.5 %r=0.532544 XHL=2.4 XLT=2.4 XHT=1.6

New Transformer.tr(r:udt2102-udt2102lv) phases=1 windings=3 %loadloss=0.798816 %Noloadloss=0.37 normhkva=55.0 wdg=1 conn=wye bus=udt2102.3 Kv=7.199560000000001 kva=50.0 EmergHKVA=75.0 %r=0.266272 wdg=2 conn=wye bus=udt2102lv.1.0 Kv=0.120089 kva=50.0 EmergHKVA=75.0 %r=0.532544 wdg=3 conn=wye bus=udt2102lv.0.2 Kv=0.120089 kva=50.0 EmergHKVA=75.0 %r=0.532544 XHL=2.4 XLT=2.4 XHT=1.6

New Transformer.tr(r:udt2103-udt2103lv) phases=1 windings=3 %loadloss=0.798816 %Noloadloss=0.37 normhkva=55.0 wdg=1 conn=wye bus=udt2103.3 Kv=7.199560000000001 kva=50.0 EmergHKVA=75.0 %r=0.266272 wdg=2 conn=wye bus=udt2103lv.1.0 Kv=0.120089 kva=50.0 EmergHKVA=75.0 %r=0.532544 wdg=3 conn=wye bus=udt2103lv.0.2 Kv=0.120089 kva=50.0 EmergHKVA=75.0 %r=0.532544 XHL=2.4 XLT=2.4 XHT=1.6

New Transformer.tr(r:udt2104-udt2104lv) phases=1 windings=3 %loadloss=0.798816 %Noloadloss=0.37 normhkva=55.0 wdg=1 conn=wye bus=udt2104.3 Kv=7.199560000000001 kva=50.0 EmergHKVA=75.0 %r=0.266272 wdg=2 conn=wye bus=udt2104lv.1.0 Kv=0.120089 kva=50.0 EmergHKVA=75.0 %r=0.532544 wdg=3 conn=wye bus=udt2104lv.0.2 Kv=0.120089 kva=50.0 EmergHKVA=75.0 %r=0.532544 XHL=2.4 XLT=2.4 XHT=1.6

New Transformer.tr(r:udt2105-udt2105lv) phases=1 windings=3 %loadloss=0.798816 %Noloadloss=0.37 normhkva=55.0 wdg=1 conn=wye bus=udt2105.2 Kv=7.199560000000001 kva=50.0 EmergHKVA=75.0 %r=0.266272 wdg=2 conn=wye bus=udt2105lv.1.0 Kv=0.120089 kva=50.0 EmergHKVA=75.0 %r=0.532544 wdg=3 conn=wye bus=udt2105lv.0.2 Kv=0.120089 kva=50.0 EmergHKVA=75.0 %r=0.532544 XHL=2.4 XLT=2.4 XHT=1.6

New Transformer.tr(r:udt2110-udt2110lv) phases=1 windings=3 %loadloss=0.798816 %Noloadloss=0.37 normhkva=55.0 wdg=1 conn=wye bus=udt2110.2 Kv=7.199560000000001 kva=50.0 EmergHKVA=75.0 %r=0.266272 wdg=2 conn=wye bus=udt2110lv.1.0 Kv=0.120089 kva=50.0 EmergHKVA=75.0 %r=0.532544 wdg=3 conn=wye bus=udt2110lv.0.2 Kv=0.120089 kva=50.0 EmergHKVA=75.0 %r=0.532544 XHL=2.4 XLT=2.4 XHT=1.6

New Transformer.tr(r:udt2111-udt2111lv) phases=1 windings=3 %loadloss=0.798816 %Noloadloss=0.472 normhkva=27.5 wdg=1 conn=wye bus=udt2111.2 Kv=7.199560000000001 kva=25.0 EmergHKVA=37.5 %r=0.266272 wdg=2 conn=wye bus=udt2111lv.1.0 Kv=0.120089 kva=25.0 EmergHKVA=37.5 %r=0.532544 wdg=3 conn=wye bus=udt2111lv.0.2 Kv=0.120089 kva=25.0 EmergHKVA=37.5 %r=0.532544 XHL=2.4 XLT=2.4 XHT=1.6

New Transformer.tr(r:udt2112-udt2112lv) phases=1 windings=3 %loadloss=0.798816 %Noloadloss=0.37 normhkva=55.0 wdg=1 conn=wye bus=udt2112.2 Kv=7.199560000000001 kva=50.0 EmergHKVA=75.0 %r=0.266272 wdg=2 conn=wye bus=udt2112lv.1.0 Kv=0.120089 kva=50.0 EmergHKVA=75.0 %r=0.532544 wdg=3 conn=wye bus=udt2112lv.0.2 Kv=0.120089 kva=50.0 EmergHKVA=75.0 %r=0.532544 XHL=2.4 XLT=2.4 XHT=1.6

New Transformer.tr(r:udt2617-udt2617lv) phases=1 windings=3 %loadloss=0.798816 %Noloadloss=0.37 normhkva=55.0 wdg=1 conn=wye bus=udt2617.1 Kv=7.199560000000001 kva=50.0 EmergHKVA=75.0 %r=0.266272 wdg=2 conn=wye bus=udt2617lv.1.0 Kv=0.120089 kva=50.0 EmergHKVA=75.0 %r=0.532544 wdg=3 conn=wye bus=udt2617lv.0.2 Kv=0.120089 kva=50.0 EmergHKVA=75.0 %r=0.532544 XHL=2.4 XLT=2.4 XHT=1.6

New Transformer.tr(r:udt2618-udt2618lv) phases=1 windings=3 %loadloss=0.798816 %Noloadloss=0.37 normhkva=55.0 wdg=1 conn=wye bus=udt2618.3 Kv=7.199560000000001 kva=50.0 EmergHKVA=75.0 %r=0.266272 wdg=2 conn=wye bus=udt2618lv.1.0 Kv=0.120089 kva=50.0 EmergHKVA=75.0 %r=0.532544 wdg=3 conn=wye bus=udt2618lv.0.2 Kv=0.120089 kva=50.0 EmergHKVA=75.0 %r=0.532544 XHL=2.4 XLT=2.4 XHT=1.6

New Transformer.tr(r:udt2619-udt2619lv) phases=1 windings=3 %loadloss=0.798816 %Noloadloss=0.37 normhkva=55.0 wdg=1 conn=wye bus=udt2619.2 Kv=7.199560000000001 kva=50.0 EmergHKVA=75.0 %r=0.266272 wdg=2 conn=wye bus=udt2619lv.1.0 Kv=0.120089 kva=50.0 EmergHKVA=75.0 %r=0.532544 wdg=3 conn=wye bus=udt2619lv.0.2 Kv=0.120089 kva=50.0 EmergHKVA=75.0 %r=0.532544 XHL=2.4 XLT=2.4 XHT=1.6

New Transformer.tr(r:udt2885-udt2885lv) phases=3 windings=2 %loadloss=1.82396 %Noloadloss=0.325 normhkva=330.0 wdg=1 conn=wye Kv=12.47 kva=300.0 EmergHKVA=450.0 %R=0.91198 bus=udt2885 wdg=2 conn=wye Kv=0.48 kva=300.0 EmergHKVA=450.0 %R=0.91198 bus=udt2885lv XHL=3.7599999999999993

New Transformer.tr(r:udt2886-udt2886lv) phases=3 windings=2 %loadloss=2.1568 %Noloadloss=0.516667 normhkva=165.0 wdg=1 conn=wye Kv=12.47 kva=150.0 EmergHKVA=225.0 %R=1.0784 bus=udt2886 wdg=2 conn=wye Kv=0.48 kva=150.0 EmergHKVA=225.0 %R=1.0784 bus=udt2886lv XHL=3.39

New Transformer.tr(r:udt2887-udt2887lv) phases=3 windings=2 %loadloss=2.1568 %Noloadloss=0.516667 normhkva=165.0 wdg=1 conn=wye Kv=12.47 kva=150.0 EmergHKVA=225.0 %R=1.0784 bus=udt2887 wdg=2 conn=wye Kv=0.48 kva=150.0 EmergHKVA=225.0 %R=1.0784 bus=udt2887lv XHL=3.39

New Transformer.tr(r:udt3288-udt3288lv) phases=1 windings=3 %loadloss=0.798816 %Noloadloss=0.472 normhkva=27.5 wdg=1 conn=wye bus=udt3288.2 Kv=7.199560000000001 kva=25.0 EmergHKVA=37.5 %r=0.266272 wdg=2 conn=wye bus=udt3288lv.1.0 Kv=0.120089 kva=25.0 EmergHKVA=37.5 %r=0.532544 wdg=3 conn=wye bus=udt3288lv.0.2 Kv=0.120089 kva=25.0 EmergHKVA=37.5 %r=0.532544 XHL=2.4 XLT=2.4 XHT=1.6

New Transformer.tr(r:udt3289-udt3289lv) phases=1 windings=3 %loadloss=0.798816 %Noloadloss=0.472 normhkva=27.5 wdg=1 conn=wye bus=udt3289.2 Kv=7.199560000000001 kva=25.0 EmergHKVA=37.5 %r=0.266272 wdg=2 conn=wye bus=udt3289lv.1.0 Kv=0.120089 kva=25.0 EmergHKVA=37.5 %r=0.532544 wdg=3 conn=wye bus=udt3289lv.0.2 Kv=0.120089 kva=25.0 EmergHKVA=37.5 %r=0.532544 XHL=2.4 XLT=2.4 XHT=1.6

New Transformer.tr(r:udt3290-udt3290lv) phases=1 windings=3 %loadloss=0.798816 %Noloadloss=0.472 normhkva=27.5 wdg=1 conn=wye bus=udt3290.2 Kv=7.199560000000001 kva=25.0 EmergHKVA=37.5 %r=0.266272 wdg=2 conn=wye bus=udt3290lv.1.0 Kv=0.120089 kva=25.0 EmergHKVA=37.5 %r=0.532544 wdg=3 conn=wye bus=udt3290lv.0.2 Kv=0.120089 kva=25.0 EmergHKVA=37.5 %r=0.532544 XHL=2.4 XLT=2.4 XHT=1.6

New Transformer.tr(r:udt3291-udt3291lv) phases=1 windings=3 %loadloss=0.798816 %Noloadloss=0.472 normhkva=27.5 wdg=1 conn=wye bus=udt3291.2 Kv=7.199560000000001 kva=25.0 EmergHKVA=37.5 %r=0.266272 wdg=2 conn=wye bus=udt3291lv.1.0 Kv=0.120089 kva=25.0 EmergHKVA=37.5 %r=0.532544 wdg=3 conn=wye bus=udt3291lv.0.2 Kv=0.120089 kva=25.0 EmergHKVA=37.5 %r=0.532544 XHL=2.4 XLT=2.4 XHT=1.6

New Transformer.tr(r:udt4282-udt4282lv) phases=1 windings=3 %loadloss=0.798816 %Noloadloss=0.37 normhkva=55.0 wdg=1 conn=wye bus=udt4282.2 Kv=7.199560000000001 kva=50.0 EmergHKVA=75.0 %r=0.266272 wdg=2 conn=wye bus=udt4282lv.1.0 Kv=0.120089 kva=50.0 EmergHKVA=75.0 %r=0.532544 wdg=3 conn=wye bus=udt4282lv.0.2 Kv=0.120089 kva=50.0 EmergHKVA=75.0 %r=0.532544 XHL=2.4 XLT=2.4 XHT=1.6

New Transformer.tr(r:udt4283-udt4283lv) phases=3 windings=2 %loadloss=1.61095 %Noloadloss=0.62 normhkva=110.0 wdg=1 conn=wye Kv=12.47 kva=100.0 EmergHKVA=150.0 %R=0.805475 bus=udt4283 wdg=2 conn=wye Kv=0.48 kva=100.0 EmergHKVA=150.0 %R=0.805475 bus=udt4283lv XHL=3.29

New Transformer.tr(r:udt4284-udt4284lv) phases=3 windings=2 %loadloss=1.74408 %Noloadloss=0.6 normhkva=82.5 wdg=1 conn=wye Kv=12.47 kva=75.0 EmergHKVA=112.5 %R=0.87204 bus=udt4284 wdg=2 conn=wye Kv=0.48 kva=75.0 EmergHKVA=112.5 %R=0.87204 bus=udt4284lv XHL=3.2400000000000007

New Transformer.tr(r:udt4285-udt4285lv) phases=3 windings=2 %loadloss=2.1568 %Noloadloss=0.516667 normhkva=165.0 wdg=1 conn=wye Kv=12.47 kva=150.0 EmergHKVA=225.0 %R=1.0784 bus=udt4285 wdg=2 conn=wye Kv=0.48 kva=150.0 EmergHKVA=225.0 %R=1.0784 bus=udt4285lv XHL=3.39

New Transformer.tr(r:udt4286-udt4286lv) phases=3 windings=2 %loadloss=1.74408 %Noloadloss=0.6 normhkva=82.5 wdg=1 conn=wye Kv=12.47 kva=75.0 EmergHKVA=112.5 %R=0.87204 bus=udt4286 wdg=2 conn=wye Kv=0.48 kva=75.0 EmergHKVA=112.5 %R=0.87204 bus=udt4286lv XHL=3.2400000000000007

New Transformer.tr(r:udt4293-udt4293lv) phases=1 windings=3 %loadloss=0.798816 %Noloadloss=0.37 normhkva=55.0 wdg=1 conn=wye bus=udt4293.3 Kv=7.199560000000001 kva=50.0 EmergHKVA=75.0 %r=0.266272 wdg=2 conn=wye bus=udt4293lv.1.0 Kv=0.120089 kva=50.0 EmergHKVA=75.0 %r=0.532544 wdg=3 conn=wye bus=udt4293lv.0.2 Kv=0.120089 kva=50.0 EmergHKVA=75.0 %r=0.532544 XHL=2.4 XLT=2.4 XHT=1.6

New Transformer.tr(r:udt4295-udt4295lv) phases=1 windings=3 %loadloss=0.798816 %Noloadloss=0.37 normhkva=55.0 wdg=1 conn=wye bus=udt4295.1 Kv=7.199560000000001 kva=50.0 EmergHKVA=75.0 %r=0.266272 wdg=2 conn=wye bus=udt4295lv.1.0 Kv=0.120089 kva=50.0 EmergHKVA=75.0 %r=0.532544 wdg=3 conn=wye bus=udt4295lv.0.2 Kv=0.120089 kva=50.0 EmergHKVA=75.0 %r=0.532544 XHL=2.4 XLT=2.4 XHT=1.6

New Transformer.tr(r:udt4297-udt4297lv) phases=3 windings=2 %loadloss=2.1568 %Noloadloss=0.516667 normhkva=165.0 wdg=1 conn=wye Kv=12.47 kva=150.0 EmergHKVA=225.0 %R=1.0784 bus=udt4297 wdg=2 conn=wye Kv=0.48 kva=150.0 EmergHKVA=225.0 %R=1.0784 bus=udt4297lv XHL=3.39

New Transformer.tr(r:udt4301-udt4301lv) phases=3 windings=2 %loadloss=1.61095 %Noloadloss=0.62 normhkva=110.0 wdg=1 conn=wye Kv=12.47 kva=100.0 EmergHKVA=150.0 %R=0.805475 bus=udt4301 wdg=2 conn=wye Kv=0.48 kva=100.0 EmergHKVA=150.0 %R=0.805475 bus=udt4301lv XHL=3.29

New Transformer.tr(r:udt4541-udt4541lv) phases=1 windings=3 %loadloss=0.798816 %Noloadloss=0.37 normhkva=55.0 wdg=1 conn=wye bus=udt4541.3 Kv=7.199560000000001 kva=50.0 EmergHKVA=75.0 %r=0.266272 wdg=2 conn=wye bus=udt4541lv.1.0 Kv=0.120089 kva=50.0 EmergHKVA=75.0 %r=0.532544 wdg=3 conn=wye bus=udt4541lv.0.2 Kv=0.120089 kva=50.0 EmergHKVA=75.0 %r=0.532544 XHL=2.4 XLT=2.4 XHT=1.6

New Transformer.tr(r:udt4542-udt4542lv) phases=1 windings=3 %loadloss=0.798816 %Noloadloss=0.37 normhkva=55.0 wdg=1 conn=wye bus=udt4542.1 Kv=7.199560000000001 kva=50.0 EmergHKVA=75.0 %r=0.266272 wdg=2 conn=wye bus=udt4542lv.1.0 Kv=0.120089 kva=50.0 EmergHKVA=75.0 %r=0.532544 wdg=3 conn=wye bus=udt4542lv.0.2 Kv=0.120089 kva=50.0 EmergHKVA=75.0 %r=0.532544 XHL=2.4 XLT=2.4 XHT=1.6

New Transformer.tr(r:udt4543-udt4543lv) phases=1 windings=3 %loadloss=0.798816 %Noloadloss=0.472 normhkva=27.5 wdg=1 conn=wye bus=udt4543.3 Kv=7.199560000000001 kva=25.0 EmergHKVA=37.5 %r=0.266272 wdg=2 conn=wye bus=udt4543lv.1.0 Kv=0.120089 kva=25.0 EmergHKVA=37.5 %r=0.532544 wdg=3 conn=wye bus=udt4543lv.0.2 Kv=0.120089 kva=25.0 EmergHKVA=37.5 %r=0.532544 XHL=2.4 XLT=2.4 XHT=1.6

New Transformer.tr(r:udt4544-udt4544lv) phases=1 windings=3 %loadloss=0.798816 %Noloadloss=0.472 normhkva=27.5 wdg=1 conn=wye bus=udt4544.3 Kv=7.199560000000001 kva=25.0 EmergHKVA=37.5 %r=0.266272 wdg=2 conn=wye bus=udt4544lv.1.0 Kv=0.120089 kva=25.0 EmergHKVA=37.5 %r=0.532544 wdg=3 conn=wye bus=udt4544lv.0.2 Kv=0.120089 kva=25.0 EmergHKVA=37.5 %r=0.532544 XHL=2.4 XLT=2.4 XHT=1.6

New Transformer.tr(r:udt4545-udt4545lv) phases=1 windings=3 %loadloss=0.798816 %Noloadloss=0.37 normhkva=55.0 wdg=1 conn=wye bus=udt4545.1 Kv=7.199560000000001 kva=50.0 EmergHKVA=75.0 %r=0.266272 wdg=2 conn=wye bus=udt4545lv.1.0 Kv=0.120089 kva=50.0 EmergHKVA=75.0 %r=0.532544 wdg=3 conn=wye bus=udt4545lv.0.2 Kv=0.120089 kva=50.0 EmergHKVA=75.0 %r=0.532544 XHL=2.4 XLT=2.4 XHT=1.6

New Transformer.tr(r:udt4546-udt4546lv) phases=1 windings=3 %loadloss=0.49926 %Noloadloss=0.38 normhkva=82.5 wdg=1 conn=wye bus=udt4546.1 Kv=7.199560000000001 kva=75.0 EmergHKVA=112.5 %r=0.16642 wdg=2 conn=wye bus=udt4546lv.1.0 Kv=0.120089 kva=75.0 EmergHKVA=112.5 %r=0.33284 wdg=3 conn=wye bus=udt4546lv.0.2 Kv=0.120089 kva=75.0 EmergHKVA=112.5 %r=0.33284 XHL=2.4 XLT=2.4 XHT=1.6

New Transformer.tr(r:udt4547-udt4547lv) phases=1 windings=3 %loadloss=0.798816 %Noloadloss=0.37 normhkva=55.0 wdg=1 conn=wye bus=udt4547.3 Kv=7.199560000000001 kva=50.0 EmergHKVA=75.0 %r=0.266272 wdg=2 conn=wye bus=udt4547lv.1.0 Kv=0.120089 kva=50.0 EmergHKVA=75.0 %r=0.532544 wdg=3 conn=wye bus=udt4547lv.0.2 Kv=0.120089 kva=50.0 EmergHKVA=75.0 %r=0.532544 XHL=2.4 XLT=2.4 XHT=1.6

New Transformer.tr(r:udt4548-udt4548lv) phases=1 windings=3 %loadloss=0.798816 %Noloadloss=0.37 normhkva=55.0 wdg=1 conn=wye bus=udt4548.1 Kv=7.199560000000001 kva=50.0 EmergHKVA=75.0 %r=0.266272 wdg=2 conn=wye bus=udt4548lv.1.0 Kv=0.120089 kva=50.0 EmergHKVA=75.0 %r=0.532544 wdg=3 conn=wye bus=udt4548lv.0.2 Kv=0.120089 kva=50.0 EmergHKVA=75.0 %r=0.532544 XHL=2.4 XLT=2.4 XHT=1.6

New Transformer.tr(r:udt4549-udt4549lv) phases=1 windings=3 %loadloss=0.798816 %Noloadloss=0.472 normhkva=27.5 wdg=1 conn=wye bus=udt4549.3 Kv=7.199560000000001 kva=25.0 EmergHKVA=37.5 %r=0.266272 wdg=2 conn=wye bus=udt4549lv.1.0 Kv=0.120089 kva=25.0 EmergHKVA=37.5 %r=0.532544 wdg=3 conn=wye bus=udt4549lv.0.2 Kv=0.120089 kva=25.0 EmergHKVA=37.5 %r=0.532544 XHL=2.4 XLT=2.4 XHT=1.6

New Transformer.tr(r:udt4550-udt4550lv) phases=1 windings=3 %loadloss=0.798816 %Noloadloss=0.37 normhkva=55.0 wdg=1 conn=wye bus=udt4550.3 Kv=7.199560000000001 kva=50.0 EmergHKVA=75.0 %r=0.266272 wdg=2 conn=wye bus=udt4550lv.1.0 Kv=0.120089 kva=50.0 EmergHKVA=75.0 %r=0.532544 wdg=3 conn=wye bus=udt4550lv.0.2 Kv=0.120089 kva=50.0 EmergHKVA=75.0 %r=0.532544 XHL=2.4 XLT=2.4 XHT=1.6

New Transformer.tr(r:udt4551-udt4551lv) phases=1 windings=3 %loadloss=0.798816 %Noloadloss=0.472 normhkva=27.5 wdg=1 conn=wye bus=udt4551.2 Kv=7.199560000000001 kva=25.0 EmergHKVA=37.5 %r=0.266272 wdg=2 conn=wye bus=udt4551lv.1.0 Kv=0.120089 kva=25.0 EmergHKVA=37.5 %r=0.532544 wdg=3 conn=wye bus=udt4551lv.0.2 Kv=0.120089 kva=25.0 EmergHKVA=37.5 %r=0.532544 XHL=2.4 XLT=2.4 XHT=1.6

New Transformer.tr(r:udt4552-udt4552lv) phases=1 windings=3 %loadloss=0.798816 %Noloadloss=0.37 normhkva=55.0 wdg=1 conn=wye bus=udt4552.3 Kv=7.199560000000001 kva=50.0 EmergHKVA=75.0 %r=0.266272 wdg=2 conn=wye bus=udt4552lv.1.0 Kv=0.120089 kva=50.0 EmergHKVA=75.0 %r=0.532544 wdg=3 conn=wye bus=udt4552lv.0.2 Kv=0.120089 kva=50.0 EmergHKVA=75.0 %r=0.532544 XHL=2.4 XLT=2.4 XHT=1.6

New Transformer.tr(r:udt4553-udt4553lv) phases=1 windings=3 %loadloss=0.798816 %Noloadloss=0.37 normhkva=55.0 wdg=1 conn=wye bus=udt4553.3 Kv=7.199560000000001 kva=50.0 EmergHKVA=75.0 %r=0.266272 wdg=2 conn=wye bus=udt4553lv.1.0 Kv=0.120089 kva=50.0 EmergHKVA=75.0 %r=0.532544 wdg=3 conn=wye bus=udt4553lv.0.2 Kv=0.120089 kva=50.0 EmergHKVA=75.0 %r=0.532544 XHL=2.4 XLT=2.4 XHT=1.6

New Transformer.tr(r:udt4554-udt4554lv) phases=3 windings=2 %loadloss=1.61095 %Noloadloss=0.62 normhkva=110.0 wdg=1 conn=wye Kv=12.47 kva=100.0 EmergHKVA=150.0 %R=0.805475 bus=udt4554 wdg=2 conn=wye Kv=0.48 kva=100.0 EmergHKVA=150.0 %R=0.805475 bus=udt4554lv XHL=3.29

New Transformer.tr(r:udt4555-udt4555lv) phases=1 windings=3 %loadloss=0.798816 %Noloadloss=0.472 normhkva=27.5 wdg=1 conn=wye bus=udt4555.3 Kv=7.199560000000001 kva=25.0 EmergHKVA=37.5 %r=0.266272 wdg=2 conn=wye bus=udt4555lv.1.0 Kv=0.120089 kva=25.0 EmergHKVA=37.5 %r=0.532544 wdg=3 conn=wye bus=udt4555lv.0.2 Kv=0.120089 kva=25.0 EmergHKVA=37.5 %r=0.532544 XHL=2.4 XLT=2.4 XHT=1.6

New Transformer.tr(r:udt4556-udt4556lv) phases=1 windings=3 %loadloss=0.798816 %Noloadloss=0.472 normhkva=27.5 wdg=1 conn=wye bus=udt4556.3 Kv=7.199560000000001 kva=25.0 EmergHKVA=37.5 %r=0.266272 wdg=2 conn=wye bus=udt4556lv.1.0 Kv=0.120089 kva=25.0 EmergHKVA=37.5 %r=0.532544 wdg=3 conn=wye bus=udt4556lv.0.2 Kv=0.120089 kva=25.0 EmergHKVA=37.5 %r=0.532544 XHL=2.4 XLT=2.4 XHT=1.6

New Transformer.tr(r:udt4557-udt4557lv) phases=1 windings=3 %loadloss=0.798816 %Noloadloss=0.472 normhkva=27.5 wdg=1 conn=wye bus=udt4557.3 Kv=7.199560000000001 kva=25.0 EmergHKVA=37.5 %r=0.266272 wdg=2 conn=wye bus=udt4557lv.1.0 Kv=0.120089 kva=25.0 EmergHKVA=37.5 %r=0.532544 wdg=3 conn=wye bus=udt4557lv.0.2 Kv=0.120089 kva=25.0 EmergHKVA=37.5 %r=0.532544 XHL=2.4 XLT=2.4 XHT=1.6

New Transformer.tr(r:udt4558-udt4558lv) phases=1 windings=3 %loadloss=0.798816 %Noloadloss=0.37 normhkva=55.0 wdg=1 conn=wye bus=udt4558.1 Kv=7.199560000000001 kva=50.0 EmergHKVA=75.0 %r=0.266272 wdg=2 conn=wye bus=udt4558lv.1.0 Kv=0.120089 kva=50.0 EmergHKVA=75.0 %r=0.532544 wdg=3 conn=wye bus=udt4558lv.0.2 Kv=0.120089 kva=50.0 EmergHKVA=75.0 %r=0.532544 XHL=2.4 XLT=2.4 XHT=1.6

New Transformer.tr(r:udt4559-udt4559lv) phases=1 windings=3 %loadloss=0.798816 %Noloadloss=0.37 normhkva=55.0 wdg=1 conn=wye bus=udt4559.1 Kv=7.199560000000001 kva=50.0 EmergHKVA=75.0 %r=0.266272 wdg=2 conn=wye bus=udt4559lv.1.0 Kv=0.120089 kva=50.0 EmergHKVA=75.0 %r=0.532544 wdg=3 conn=wye bus=udt4559lv.0.2 Kv=0.120089 kva=50.0 EmergHKVA=75.0 %r=0.532544 XHL=2.4 XLT=2.4 XHT=1.6

New Transformer.tr(r:udt4560-udt4560lv) phases=1 windings=3 %loadloss=0.798816 %Noloadloss=0.37 normhkva=55.0 wdg=1 conn=wye bus=udt4560.1 Kv=7.199560000000001 kva=50.0 EmergHKVA=75.0 %r=0.266272 wdg=2 conn=wye bus=udt4560lv.1.0 Kv=0.120089 kva=50.0 EmergHKVA=75.0 %r=0.532544 wdg=3 conn=wye bus=udt4560lv.0.2 Kv=0.120089 kva=50.0 EmergHKVA=75.0 %r=0.532544 XHL=2.4 XLT=2.4 XHT=1.6

New Transformer.tr(r:udt4561-udt4561lv) phases=1 windings=3 %loadloss=0.798816 %Noloadloss=0.472 normhkva=27.5 wdg=1 conn=wye bus=udt4561.1 Kv=7.199560000000001 kva=25.0 EmergHKVA=37.5 %r=0.266272 wdg=2 conn=wye bus=udt4561lv.1.0 Kv=0.120089 kva=25.0 EmergHKVA=37.5 %r=0.532544 wdg=3 conn=wye bus=udt4561lv.0.2 Kv=0.120089 kva=25.0 EmergHKVA=37.5 %r=0.532544 XHL=2.4 XLT=2.4 XHT=1.6

New Transformer.tr(r:udt4562-udt4562lv) phases=1 windings=3 %loadloss=0.798816 %Noloadloss=0.37 normhkva=55.0 wdg=1 conn=wye bus=udt4562.3 Kv=7.199560000000001 kva=50.0 EmergHKVA=75.0 %r=0.266272 wdg=2 conn=wye bus=udt4562lv.1.0 Kv=0.120089 kva=50.0 EmergHKVA=75.0 %r=0.532544 wdg=3 conn=wye bus=udt4562lv.0.2 Kv=0.120089 kva=50.0 EmergHKVA=75.0 %r=0.532544 XHL=2.4 XLT=2.4 XHT=1.6

New Transformer.tr(r:udt4563-udt4563lv) phases=1 windings=3 %loadloss=0.798816 %Noloadloss=0.472 normhkva=27.5 wdg=1 conn=wye bus=udt4563.2 Kv=7.199560000000001 kva=25.0 EmergHKVA=37.5 %r=0.266272 wdg=2 conn=wye bus=udt4563lv.1.0 Kv=0.120089 kva=25.0 EmergHKVA=37.5 %r=0.532544 wdg=3 conn=wye bus=udt4563lv.0.2 Kv=0.120089 kva=25.0 EmergHKVA=37.5 %r=0.532544 XHL=2.4 XLT=2.4 XHT=1.6

New Transformer.tr(r:udt4564-udt4564lv) phases=1 windings=3 %loadloss=0.798816 %Noloadloss=0.472 normhkva=27.5 wdg=1 conn=wye bus=udt4564.2 Kv=7.199560000000001 kva=25.0 EmergHKVA=37.5 %r=0.266272 wdg=2 conn=wye bus=udt4564lv.1.0 Kv=0.120089 kva=25.0 EmergHKVA=37.5 %r=0.532544 wdg=3 conn=wye bus=udt4564lv.0.2 Kv=0.120089 kva=25.0 EmergHKVA=37.5 %r=0.532544 XHL=2.4 XLT=2.4 XHT=1.6

New Transformer.tr(r:udt4565-udt4565lv) phases=1 windings=3 %loadloss=0.798816 %Noloadloss=0.37 normhkva=55.0 wdg=1 conn=wye bus=udt4565.3 Kv=7.199560000000001 kva=50.0 EmergHKVA=75.0 %r=0.266272 wdg=2 conn=wye bus=udt4565lv.1.0 Kv=0.120089 kva=50.0 EmergHKVA=75.0 %r=0.532544 wdg=3 conn=wye bus=udt4565lv.0.2 Kv=0.120089 kva=50.0 EmergHKVA=75.0 %r=0.532544 XHL=2.4 XLT=2.4 XHT=1.6

New Transformer.tr(r:udt4566-udt4566lv) phases=1 windings=3 %loadloss=0.798816 %Noloadloss=0.472 normhkva=27.5 wdg=1 conn=wye bus=udt4566.1 Kv=7.199560000000001 kva=25.0 EmergHKVA=37.5 %r=0.266272 wdg=2 conn=wye bus=udt4566lv.1.0 Kv=0.120089 kva=25.0 EmergHKVA=37.5 %r=0.532544 wdg=3 conn=wye bus=udt4566lv.0.2 Kv=0.120089 kva=25.0 EmergHKVA=37.5 %r=0.532544 XHL=2.4 XLT=2.4 XHT=1.6

New Transformer.tr(r:udt4567-udt4567lv) phases=1 windings=3 %loadloss=0.798816 %Noloadloss=0.472 normhkva=27.5 wdg=1 conn=wye bus=udt4567.1 Kv=7.199560000000001 kva=25.0 EmergHKVA=37.5 %r=0.266272 wdg=2 conn=wye bus=udt4567lv.1.0 Kv=0.120089 kva=25.0 EmergHKVA=37.5 %r=0.532544 wdg=3 conn=wye bus=udt4567lv.0.2 Kv=0.120089 kva=25.0 EmergHKVA=37.5 %r=0.532544 XHL=2.4 XLT=2.4 XHT=1.6

New Transformer.tr(r:udt4568-udt4568lv) phases=1 windings=3 %loadloss=0.798816 %Noloadloss=0.472 normhkva=27.5 wdg=1 conn=wye bus=udt4568.1 Kv=7.199560000000001 kva=25.0 EmergHKVA=37.5 %r=0.266272 wdg=2 conn=wye bus=udt4568lv.1.0 Kv=0.120089 kva=25.0 EmergHKVA=37.5 %r=0.532544 wdg=3 conn=wye bus=udt4568lv.0.2 Kv=0.120089 kva=25.0 EmergHKVA=37.5 %r=0.532544 XHL=2.4 XLT=2.4 XHT=1.6

New Transformer.tr(r:udt5373-udt5373lv) phases=1 windings=3 %loadloss=0.798816 %Noloadloss=0.37 normhkva=55.0 wdg=1 conn=wye bus=udt5373.1 Kv=7.199560000000001 kva=50.0 EmergHKVA=75.0 %r=0.266272 wdg=2 conn=wye bus=udt5373lv.1.0 Kv=0.120089 kva=50.0 EmergHKVA=75.0 %r=0.532544 wdg=3 conn=wye bus=udt5373lv.0.2 Kv=0.120089 kva=50.0 EmergHKVA=75.0 %r=0.532544 XHL=2.4 XLT=2.4 XHT=1.6

New Transformer.tr(r:udt6795-udt6795lv) phases=3 windings=2 %loadloss=1.82396 %Noloadloss=0.325 normhkva=330.0 wdg=1 conn=wye Kv=12.47 kva=300.0 EmergHKVA=450.0 %R=0.91198 bus=udt6795 wdg=2 conn=wye Kv=0.48 kva=300.0 EmergHKVA=450.0 %R=0.91198 bus=udt6795lv XHL=3.7599999999999993

New Transformer.tr(r:udt6796-udt6796lv) phases=3 windings=2 %loadloss=1.61095 %Noloadloss=0.62 normhkva=110.0 wdg=1 conn=wye Kv=12.47 kva=100.0 EmergHKVA=150.0 %R=0.805475 bus=udt6796 wdg=2 conn=wye Kv=0.48 kva=100.0 EmergHKVA=150.0 %R=0.805475 bus=udt6796lv XHL=3.29

New Transformer.tr(r:udt6798-udt6798lv) phases=1 windings=3 %loadloss=0.798816 %Noloadloss=0.37 normhkva=55.0 wdg=1 conn=wye bus=udt6798.2 Kv=7.199560000000001 kva=50.0 EmergHKVA=75.0 %r=0.266272 wdg=2 conn=wye bus=udt6798lv.1.0 Kv=0.120089 kva=50.0 EmergHKVA=75.0 %r=0.532544 wdg=3 conn=wye bus=udt6798lv.0.2 Kv=0.120089 kva=50.0 EmergHKVA=75.0 %r=0.532544 XHL=2.4 XLT=2.4 XHT=1.6

New Transformer.tr(r:udt6800-udt6800lv) phases=1 windings=3 %loadloss=0.798816 %Noloadloss=0.472 normhkva=27.5 wdg=1 conn=wye bus=udt6800.3 Kv=7.199560000000001 kva=25.0 EmergHKVA=37.5 %r=0.266272 wdg=2 conn=wye bus=udt6800lv.1.0 Kv=0.120089 kva=25.0 EmergHKVA=37.5 %r=0.532544 wdg=3 conn=wye bus=udt6800lv.0.2 Kv=0.120089 kva=25.0 EmergHKVA=37.5 %r=0.532544 XHL=2.4 XLT=2.4 XHT=1.6

New Transformer.tr(r:udt6825-udt6825lv) phases=1 windings=3 %loadloss=0.798816 %Noloadloss=0.37 normhkva=55.0 wdg=1 conn=wye bus=udt6825.1 Kv=7.199560000000001 kva=50.0 EmergHKVA=75.0 %r=0.266272 wdg=2 conn=wye bus=udt6825lv.1.0 Kv=0.120089 kva=50.0 EmergHKVA=75.0 %r=0.532544 wdg=3 conn=wye bus=udt6825lv.0.2 Kv=0.120089 kva=50.0 EmergHKVA=75.0 %r=0.532544 XHL=2.4 XLT=2.4 XHT=1.6

New Transformer.tr(r:udt6827-udt6827lv) phases=1 windings=3 %loadloss=0.798816 %Noloadloss=0.472 normhkva=27.5 wdg=1 conn=wye bus=udt6827.1 Kv=7.199560000000001 kva=25.0 EmergHKVA=37.5 %r=0.266272 wdg=2 conn=wye bus=udt6827lv.1.0 Kv=0.120089 kva=25.0 EmergHKVA=37.5 %r=0.532544 wdg=3 conn=wye bus=udt6827lv.0.2 Kv=0.120089 kva=25.0 EmergHKVA=37.5 %r=0.532544 XHL=2.4 XLT=2.4 XHT=1.6

New Transformer.tr(r:udt6829-udt6829lv) phases=3 windings=2 %loadloss=1.61095 %Noloadloss=0.62 normhkva=110.0 wdg=1 conn=wye Kv=12.47 kva=100.0 EmergHKVA=150.0 %R=0.805475 bus=udt6829 wdg=2 conn=wye Kv=0.48 kva=100.0 EmergHKVA=150.0 %R=0.805475 bus=udt6829lv XHL=3.29

New Transformer.tr(r:udt6833-udt6833lv) phases=1 windings=3 %loadloss=0.798816 %Noloadloss=0.472 normhkva=27.5 wdg=1 conn=wye bus=udt6833.2 Kv=7.199560000000001 kva=25.0 EmergHKVA=37.5 %r=0.266272 wdg=2 conn=wye bus=udt6833lv.1.0 Kv=0.120089 kva=25.0 EmergHKVA=37.5 %r=0.532544 wdg=3 conn=wye bus=udt6833lv.0.2 Kv=0.120089 kva=25.0 EmergHKVA=37.5 %r=0.532544 XHL=2.4 XLT=2.4 XHT=1.6
