New Line.l(r:p1ulv3521-udt1645lv) Units=km Length=0.0181178 bus1=udt1645lv.1.2 bus2=p1ulv3521.1.2 switch=n enabled=y phases=2 Linecode=1P_OH_AL_2/0_Rucina_0_416_0_2_2

New Line.l(r:p1ulv15102-udm6572) Units=km Length=0.0192662 bus1=udm6572.1.2 bus2=p1ulv15102.1.2 switch=n enabled=y phases=2 Linecode=1P_OH_AL_2/0_Rucina_0_416_0_2_2

New Line.l(r:udm6572-udt1645lv) Units=km Length=0.0345476 bus1=udt1645lv.1.2 bus2=udm6572.1.2 switch=n enabled=y phases=2 Linecode=1P_OH_AL_4/0_Zuzara_0_416_0_2_2

New Line.l(r:p1ulv20018-udm6573) Units=km Length=0.01437 bus1=udm6573.1.2 bus2=p1ulv20018.1.2 switch=n enabled=y phases=2 Linecode=1P_OH_AL_2/0_Rucina_0_416_0_2_2

New Line.l(r:udm6573-udt1645lv) Units=km Length=0.03083 bus1=udt1645lv.1.2 bus2=udm6573.1.2 switch=n enabled=y phases=2 Linecode=1P_OH_AL_4/0_Zuzara_0_416_0_2_2

New Line.l(r:p1ulv3522-udt1646lv) Units=km Length=0.017022 bus1=udt1646lv.1.2 bus2=p1ulv3522.1.2 switch=n enabled=y phases=2 Linecode=1P_UG_AL_1/0_Brenau_0_416_0_2_2

New Line.l(r:p1ulv3526-udm6575) Units=km Length=0.0161695 bus1=udm6575.1.2 bus2=p1ulv3526.1.2 switch=n enabled=y phases=2 Linecode=1P_UG_AL_1/0_Brenau_0_416_0_2_2

New Line.l(r:udm6575-udt1646lv) Units=km Length=0.00942327 bus1=udt1646lv.1.2 bus2=udm6575.1.2 switch=n enabled=y phases=2 Linecode=1P_UG_AL_1/0_Brenau_0_416_0_2_2

New Line.l(r:p1ulv15829-udm6576) Units=km Length=0.0172678 bus1=udm6576.1.2 bus2=p1ulv15829.1.2 switch=n enabled=y phases=2 Linecode=1P_UG_AL_1/0_Brenau_0_416_0_2_2

New Line.l(r:udm6576-udt1646lv) Units=km Length=0.00942381 bus1=udt1646lv.1.2 bus2=udm6576.1.2 switch=n enabled=y phases=2 Linecode=1P_UG_AL_1/0_Brenau_0_416_0_2_2

New Line.l(r:p1ulv18844-udt1647lv) Units=km Length=0.0052906 bus1=udt1647lv.1.2 bus2=p1ulv18844.1.2 switch=n enabled=y phases=2 Linecode=1P_UG_AL_1/0_Brenau_0_416_0_2_2

New Line.l(r:p1ulv3523-udm6577) Units=km Length=0.0135762 bus1=udm6577.1.2 bus2=p1ulv3523.1.2 switch=n enabled=y phases=2 Linecode=1P_UG_AL_1/0_Brenau_0_416_0_2_2

New Line.l(r:p1ulv19122-udm6580) Units=km Length=0.0220534 bus1=udm6580.1.2 bus2=p1ulv19122.1.2 switch=n enabled=y phases=2 Linecode=1P_UG_AL_1/0_Brenau_0_416_0_2_2

New Line.l(r:udm6577-udm6580) Units=km Length=0.0398925 bus1=udm6577.1.2 bus2=udm6580.1.2 switch=n enabled=y phases=2 Linecode=1P_UG_AL_1/0_Brenau_0_416_0_2_2

New Line.l(r:udm6577-udt1647lv) Units=km Length=0.0194222 bus1=udt1647lv.1.2 bus2=udm6577.1.2 switch=n enabled=y phases=2 Linecode=1P_UG_AL_1/0_Brenau_0_416_0_2_2

New Line.l(r:p1ulv15415-udm6578) Units=km Length=0.00749573 bus1=udm6578.1.2 bus2=p1ulv15415.1.2 switch=n enabled=y phases=2 Linecode=1P_UG_AL_1/0_Brenau_0_416_0_2_2

New Line.l(r:udm6578-udt1647lv) Units=km Length=0.0097078 bus1=udt1647lv.1.2 bus2=udm6578.1.2 switch=n enabled=y phases=2 Linecode=1P_UG_AL_1/0_Brenau_0_416_0_2_2

New Line.l(r:p1ulv20207-udt1648lv) Units=km Length=0.0139295 bus1=udt1648lv.1.2 bus2=p1ulv20207.1.2 switch=n enabled=y phases=2 Linecode=1P_OH_AL_2/0_Rucina_0_416_0_2_2

New Line.l(r:p1ulv3524-udm6581) Units=km Length=0.0200605 bus1=udm6581.1.2 bus2=p1ulv3524.1.2 switch=n enabled=y phases=2 Linecode=1P_OH_AL_2/0_Rucina_0_416_0_2_2

New Line.l(r:udm6581-udt1648lv) Units=km Length=0.0197091 bus1=udt1648lv.1.2 bus2=udm6581.1.2 switch=n enabled=y phases=2 Linecode=1P_OH_AL_2/0_Rucina_0_416_0_2_2

New Line.l(r:p1ulv25049-udm6583) Units=km Length=0.013147 bus1=udm6583.1.2 bus2=p1ulv25049.1.2 switch=n enabled=y phases=2 Linecode=1P_OH_AL_2/0_Rucina_0_416_0_2_2

New Line.l(r:p1ulv29232-udm6583) Units=km Length=0.0365905 bus1=udm6583.1.2 bus2=p1ulv29232.1.2 switch=n enabled=y phases=2 Linecode=1P_OH_AL_4/0_Zuzara_0_416_0_2_2

New Line.l(r:udm6583-udt1648lv) Units=km Length=0.0197191 bus1=udt1648lv.1.2 bus2=udm6583.1.2 switch=n enabled=y phases=2 Linecode=1P_OH_AL_2/0_Rucina_0_416_0_2_2

New Line.l(r:p1ulv3525-udm6585) Units=km Length=0.0142462 bus1=udm6585.1.2 bus2=p1ulv3525.1.2 switch=n enabled=y phases=2 Linecode=1P_OH_AL_2/0_Rucina_0_416_0_2_2

New Line.l(r:p1ulv13112-udm6585) Units=km Length=0.0335236 bus1=udm6585.1.2 bus2=p1ulv13112.1.2 switch=n enabled=y phases=2 Linecode=1P_OH_AL_4/0_Zuzara_0_416_0_2_2

New Line.l(r:udm6585-udt1649lv) Units=km Length=0.0198542 bus1=udt1649lv.1.2 bus2=udm6585.1.2 switch=n enabled=y phases=2 Linecode=1P_OH_AL_2/0_Rucina_0_416_0_2_2

New Line.l(r:p1ulv32609-udm6587) Units=km Length=0.0222384 bus1=udm6587.1.2 bus2=p1ulv32609.1.2 switch=n enabled=y phases=2 Linecode=1P_OH_AL_2/0_Rucina_0_416_0_2_2

New Line.l(r:p1ulv35998-udm6587) Units=km Length=0.0150733 bus1=udm6587.1.2 bus2=p1ulv35998.1.2 switch=n enabled=y phases=2 Linecode=1P_OH_AL_2/0_Rucina_0_416_0_2_2

New Line.l(r:udm6587-udt1649lv) Units=km Length=0.008460430000000001 bus1=udt1649lv.1.2 bus2=udm6587.1.2 switch=n enabled=y phases=2 Linecode=1P_OH_AL_2/0_Rucina_0_416_0_2_2

New Line.l(r:p1ulv21832-udt1650lv) Units=km Length=0.013452 bus1=udt1650lv.1.2 bus2=p1ulv21832.1.2 switch=n enabled=y phases=2 Linecode=1P_UG_AL_1/0_Brenau_0_416_0_2_2

New Line.l(r:p1ulv3527-udm6589) Units=km Length=0.0202948 bus1=udm6589.1.2 bus2=p1ulv3527.1.2 switch=n enabled=y phases=2 Linecode=1P_UG_AL_1/0_Brenau_0_416_0_2_2

New Line.l(r:p1ulv18467-udm6589) Units=km Length=0.00918139 bus1=udm6589.1.2 bus2=p1ulv18467.1.2 switch=n enabled=y phases=2 Linecode=1P_UG_AL_1/0_Brenau_0_416_0_2_2

New Line.l(r:p1ulv16817-udm6592) Units=km Length=0.0138155 bus1=udm6592.1.2 bus2=p1ulv16817.1.2 switch=n enabled=y phases=2 Linecode=1P_UG_AL_1/0_Brenau_0_416_0_2_2

New Line.l(r:p1ulv3529-udm6590) Units=km Length=0.0117193 bus1=udm6590.1.2 bus2=p1ulv3529.1.2 switch=n enabled=y phases=2 Linecode=1P_UG_AL_1/0_Brenau_0_416_0_2_2

New Line.l(r:udm6590-udm6592) Units=km Length=0.00957921 bus1=udm6592.1.2 bus2=udm6590.1.2 switch=n enabled=y phases=2 Linecode=1P_UG_AL_1/0_Brenau_0_416_0_2_2

New Line.l(r:udm6589-udm6592) Units=km Length=0.0191584 bus1=udm6589.1.2 bus2=udm6592.1.2 switch=n enabled=y phases=2 Linecode=1P_UG_AL_1/0_Brenau_0_416_0_2_2

New Line.l(r:udm6589-udt1650lv) Units=km Length=0.00957921 bus1=udt1650lv.1.2 bus2=udm6589.1.2 switch=n enabled=y phases=2 Linecode=1P_UG_AL_4/0_Sweetbriar_0_416_0_2_2

New Line.l(r:p1ulv13331-udm6591) Units=km Length=0.0208747 bus1=udm6591.1.2 bus2=p1ulv13331.1.2 switch=n enabled=y phases=2 Linecode=1P_OH_AL_2/0_Rucina_0_416_0_2_2

New Line.l(r:p1ulv23547-udm6595) Units=km Length=0.014320900000000001 bus1=udm6595.1.2 bus2=p1ulv23547.1.2 switch=n enabled=y phases=2 Linecode=1P_OH_AL_2/0_Rucina_0_416_0_2_2

New Line.l(r:udm6591-udm6595) Units=km Length=0.0309812 bus1=udm6591.1.2 bus2=udm6595.1.2 switch=n enabled=y phases=2 Linecode=1P_OH_AL_4/0_Zuzara_0_416_0_2_2

New Line.l(r:udm6591-udt1650lv) Units=km Length=0.0430184 bus1=udt1650lv.1.2 bus2=udm6591.1.2 switch=n enabled=y phases=2 Linecode=1P_OH_AL_4/0_Zuzara_0_416_0_2_2

New Line.l(r:p1ulv18223-udt1651lv) Units=km Length=0.0196761 bus1=udt1651lv.1.2 bus2=p1ulv18223.1.2 switch=n enabled=y phases=2 Linecode=1P_UG_AL_1/0_Brenau_0_416_0_2_2

New Line.l(r:p1ulv15055-udm6597) Units=km Length=0.0121824 bus1=udm6597.1.2 bus2=p1ulv15055.1.2 switch=n enabled=y phases=2 Linecode=1P_UG_AL_1/0_Brenau_0_416_0_2_2

New Line.l(r:p1ulv15702-udm6597) Units=km Length=0.03650210000000001 bus1=udm6597.1.2 bus2=p1ulv15702.1.2 switch=n enabled=y phases=2 Linecode=1P_UG_AL_1/0_Brenau_0_416_0_2_2

New Line.l(r:p1ulv3528-udm6596) Units=km Length=0.0202299 bus1=udm6596.1.2 bus2=p1ulv3528.1.2 switch=n enabled=y phases=2 Linecode=1P_UG_AL_1/0_Brenau_0_416_0_2_2

New Line.l(r:udm6596-udm6597) Units=km Length=0.00957921 bus1=udm6597.1.2 bus2=udm6596.1.2 switch=n enabled=y phases=2 Linecode=1P_UG_AL_1/0_Brenau_0_416_0_2_2

New Line.l(r:udm6597-udt1651lv) Units=km Length=0.00957921 bus1=udt1651lv.1.2 bus2=udm6597.1.2 switch=n enabled=y phases=2 Linecode=1P_UG_AL_1/0_Brenau_0_416_0_2_2

New Line.l(r:p1ulv19976-udm6600) Units=km Length=0.0136914 bus1=udm6600.1.2 bus2=p1ulv19976.1.2 switch=n enabled=y phases=2 Linecode=1P_UG_AL_1/0_Brenau_0_416_0_2_2

New Line.l(r:p1ulv23449-udm6601) Units=km Length=0.0114275 bus1=udm6601.1.2 bus2=p1ulv23449.1.2 switch=n enabled=y phases=2 Linecode=1P_UG_AL_1/0_Brenau_0_416_0_2_2

New Line.l(r:udm6600-udm6601) Units=km Length=0.048287 bus1=udm6600.1.2 bus2=udm6601.1.2 switch=n enabled=y phases=2 Linecode=1P_UG_AL_1/0_Brenau_0_416_0_2_2

New Line.l(r:udm6600-udt1651lv) Units=km Length=0.00957921 bus1=udt1651lv.1.2 bus2=udm6600.1.2 switch=n enabled=y phases=2 Linecode=1P_UG_AL_1/0_Brenau_0_416_0_2_2

New Line.l(r:p1ulv29142-udt1652lv) Units=km Length=0.0134001 bus1=udt1652lv.1.2 bus2=p1ulv29142.1.2 switch=n enabled=y phases=2 Linecode=1P_OH_AL_2/0_Rucina_0_416_0_2_2

New Line.l(r:p1ulv3530-udm6602) Units=km Length=0.0157024 bus1=udm6602.1.2 bus2=p1ulv3530.1.2 switch=n enabled=y phases=2 Linecode=1P_OH_AL_2/0_Rucina_0_416_0_2_2

New Line.l(r:udm6602-udt1652lv) Units=km Length=0.0198542 bus1=udt1652lv.1.2 bus2=udm6602.1.2 switch=n enabled=y phases=2 Linecode=1P_OH_AL_2/0_Rucina_0_416_0_2_2

New Line.l(r:p1ulv32517-udm6604) Units=km Length=0.0151888 bus1=udm6604.1.2 bus2=p1ulv32517.1.2 switch=n enabled=y phases=2 Linecode=1P_OH_AL_2/0_Rucina_0_416_0_2_2

New Line.l(r:udm6604-udt1652lv) Units=km Length=0.019854700000000003 bus1=udt1652lv.1.2 bus2=udm6604.1.2 switch=n enabled=y phases=2 Linecode=1P_OH_AL_2/0_Rucina_0_416_0_2_2

New Line.l(r:p1ulv3578-udt1695lv) Units=km Length=0.0303655 bus1=udt1695lv.1.2 bus2=p1ulv3578.1.2 switch=n enabled=y phases=2 Linecode=1P_OH_AL_4/0_Zuzara_0_416_0_2_2

New Line.l(r:p1ulv24706-udt1696lv) Units=km Length=0.0143068 bus1=udt1696lv.1.2 bus2=p1ulv24706.1.2 switch=n enabled=y phases=2 Linecode=1P_OH_AL_2/0_Rucina_0_416_0_2_2

New Line.l(r:p1ulv3579-udm6724) Units=km Length=0.013717100000000001 bus1=udm6724.1.2 bus2=p1ulv3579.1.2 switch=n enabled=y phases=2 Linecode=1P_OH_AL_2/0_Rucina_0_416_0_2_2

New Line.l(r:p1ulv21436-udm6724) Units=km Length=0.019634000000000002 bus1=udm6724.1.2 bus2=p1ulv21436.1.2 switch=n enabled=y phases=2 Linecode=1P_OH_AL_2/0_Rucina_0_416_0_2_2

New Line.l(r:p1ulv34028-udm6732) Units=km Length=0.0143559 bus1=udm6732.1.2 bus2=p1ulv34028.1.2 switch=n enabled=y phases=2 Linecode=1P_OH_AL_2/0_Rucina_0_416_0_2_2

New Line.l(r:p1ulv35951-udm6732) Units=km Length=0.0198721 bus1=udm6732.1.2 bus2=p1ulv35951.1.2 switch=n enabled=y phases=2 Linecode=1P_OH_AL_2/0_Rucina_0_416_0_2_2

New Line.l(r:p1ulv32470-udm6731) Units=km Length=0.0159176 bus1=udm6731.1.2 bus2=p1ulv32470.1.2 switch=n enabled=y phases=2 Linecode=1P_OH_AL_2/0_Rucina_0_416_0_2_2

New Line.l(r:udm6731-udm6732) Units=km Length=0.0177072 bus1=udm6732.1.2 bus2=udm6731.1.2 switch=n enabled=y phases=2 Linecode=1P_OH_AL_2/0_Rucina_0_416_0_2_2

New Line.l(r:udm6724-udm6732) Units=km Length=0.0177166 bus1=udm6724.1.2 bus2=udm6732.1.2 switch=n enabled=y phases=2 Linecode=1P_OH_AL_2/0_Rucina_0_416_0_2_2

New Line.l(r:udm6724-udt1696lv) Units=km Length=0.0177072 bus1=udt1696lv.1.2 bus2=udm6724.1.2 switch=n enabled=y phases=2 Linecode=1P_OH_AL_2/0_Rucina_0_416_0_2_0_2

New Line.l(r:p1ulv14954-udm6725) Units=km Length=0.0140629 bus1=udm6725.1.2 bus2=p1ulv14954.1.2 switch=n enabled=y phases=2 Linecode=1P_OH_AL_2/0_Rucina_0_416_0_2_2

New Line.l(r:p1ulv18464-udm6726) Units=km Length=0.014146600000000002 bus1=udm6726.1.2 bus2=p1ulv18464.1.2 switch=n enabled=y phases=2 Linecode=1P_OH_AL_2/0_Rucina_0_416_0_2_2

New Line.l(r:udm6725-udm6726) Units=km Length=0.0188969 bus1=udm6725.1.2 bus2=udm6726.1.2 switch=n enabled=y phases=2 Linecode=1P_OH_AL_2/0_Rucina_0_416_0_2_2

New Line.l(r:p1ulv21968-udm6728) Units=km Length=0.010928 bus1=udm6728.1.2 bus2=p1ulv21968.1.2 switch=n enabled=y phases=2 Linecode=1P_OH_AL_2/0_Rucina_0_416_0_2_2

New Line.l(r:p1ulv24817-udm6728) Units=km Length=0.0141089 bus1=udm6728.1.2 bus2=p1ulv24817.1.2 switch=n enabled=y phases=2 Linecode=1P_OH_AL_2/0_Rucina_0_416_0_2_2

New Line.l(r:udm6725-udm6728) Units=km Length=0.017325 bus1=udm6725.1.2 bus2=udm6728.1.2 switch=n enabled=y phases=2 Linecode=1P_OH_AL_2/0_Rucina_0_416_0_2_2

New Line.l(r:udm6725-udt1696lv) Units=km Length=0.0177201 bus1=udt1696lv.1.2 bus2=udm6725.1.2 switch=n enabled=y phases=2 Linecode=1P_OH_AL_2/0_Rucina_0_416_0_2_2

New Line.l(r:p1ulv18987-udt1697lv) Units=km Length=0.0100445 bus1=udt1697lv.1.2 bus2=p1ulv18987.1.2 switch=n enabled=y phases=2 Linecode=1P_OH_AL_2/0_Rucina_0_416_0_2_2

New Line.l(r:p1ulv25194-udt1697lv) Units=km Length=0.0166502 bus1=udt1697lv.1.2 bus2=p1ulv25194.1.2 switch=n enabled=y phases=2 Linecode=1P_OH_AL_2/0_Rucina_0_416_0_2_2

New Line.l(r:p1ulv3580-udm6734) Units=km Length=0.0144373 bus1=udm6734.1.2 bus2=p1ulv3580.1.2 switch=n enabled=y phases=2 Linecode=1P_OH_AL_2/0_Rucina_0_416_0_2_2

New Line.l(r:p1ulv20370-udm6734) Units=km Length=0.0162017 bus1=udm6734.1.2 bus2=p1ulv20370.1.2 switch=n enabled=y phases=2 Linecode=1P_OH_AL_2/0_Rucina_0_416_0_2_2

New Line.l(r:p1ulv22384-udm6737) Units=km Length=0.0099904 bus1=udm6737.1.2 bus2=p1ulv22384.1.2 switch=n enabled=y phases=2 Linecode=1P_OH_AL_2/0_Rucina_0_416_0_2_2

New Line.l(r:udm6734-udm6737) Units=km Length=0.0196551 bus1=udm6734.1.2 bus2=udm6737.1.2 switch=n enabled=y phases=2 Linecode=1P_OH_AL_2/0_Rucina_0_416_0_2_2

New Line.l(r:udm6734-udt1697lv) Units=km Length=0.0196455 bus1=udt1697lv.1.2 bus2=udm6734.1.2 switch=n enabled=y phases=2 Linecode=1P_OH_AL_2/0_Rucina_0_416_0_2_2

New Line.l(r:p1ulv27561-udm6739) Units=km Length=0.0164262 bus1=udm6739.1.2 bus2=p1ulv27561.1.2 switch=n enabled=y phases=2 Linecode=1P_OH_AL_2/0_Rucina_0_416_0_2_2

New Line.l(r:p1ulv29099-udm6739) Units=km Length=0.0145389 bus1=udm6739.1.2 bus2=p1ulv29099.1.2 switch=n enabled=y phases=2 Linecode=1P_OH_AL_2/0_Rucina_0_416_0_2_2

New Line.l(r:udm6739-udt1697lv) Units=km Length=0.0578118 bus1=udt1697lv.1.2 bus2=udm6739.1.2 switch=n enabled=y phases=2 Linecode=1P_OH_AL_4/0_Zuzara_0_416_0_2_2

New Line.l(r:p1ulv3586-udt1703lv) Units=km Length=0.0134285 bus1=udt1703lv.1.2 bus2=p1ulv3586.1.2 switch=n enabled=y phases=2 Linecode=1P_OH_AL_2/0_Rucina_0_416_0_2_2

New Line.l(r:p1ulv31066-udt1703lv) Units=km Length=0.0157642 bus1=udt1703lv.1.2 bus2=p1ulv31066.1.2 switch=n enabled=y phases=2 Linecode=1P_OH_AL_2/0_Rucina_0_416_0_2_2

New Line.l(r:p1ulv16526-udm6750) Units=km Length=0.0139384 bus1=udm6750.1.2 bus2=p1ulv16526.1.2 switch=n enabled=y phases=2 Linecode=1P_OH_AL_2/0_Rucina_0_416_0_2_2

New Line.l(r:p1ulv19861-udm6750) Units=km Length=0.0120092 bus1=udm6750.1.2 bus2=p1ulv19861.1.2 switch=n enabled=y phases=2 Linecode=1P_OH_AL_2/0_Rucina_0_416_0_2_2

New Line.l(r:p1ulv23446-udm6750) Units=km Length=0.0127063 bus1=udm6750.1.2 bus2=p1ulv23446.1.2 switch=n enabled=y phases=2 Linecode=1P_OH_AL_2/0_Rucina_0_416_0_2_2

New Line.l(r:udm6750-udt1703lv) Units=km Length=0.0190882 bus1=udt1703lv.1.2 bus2=udm6750.1.2 switch=n enabled=y phases=2 Linecode=1P_OH_AL_2/0_Rucina_0_416_0_2_2

New Line.l(r:p1ulv17465-udm6751) Units=km Length=0.00980362 bus1=udm6751.1.2 bus2=p1ulv17465.1.2 switch=n enabled=y phases=2 Linecode=1P_OH_AL_2/0_Rucina_0_416_0_2_2

New Line.l(r:p1ulv23845-udm6751) Units=km Length=0.01856 bus1=udm6751.1.2 bus2=p1ulv23845.1.2 switch=n enabled=y phases=2 Linecode=1P_OH_AL_2/0_Rucina_0_416_0_2_2

New Line.l(r:udm6751-udt1703lv) Units=km Length=0.07397050000000001 bus1=udt1703lv.1.2 bus2=udm6751.1.2 switch=n enabled=y phases=2 Linecode=1P_OH_AL_4/0_Zuzara_0_416_0_2_2

New Line.l(r:p1ulv3587-udt1704lv) Units=km Length=0.0152421 bus1=udt1704lv.1.2 bus2=p1ulv3587.1.2 switch=n enabled=y phases=2 Linecode=1P_OH_AL_2/0_Rucina_0_416_0_2_2

New Line.l(r:p1ulv3589-udm6757) Units=km Length=0.019451200000000002 bus1=udm6757.1.2 bus2=p1ulv3589.1.2 switch=n enabled=y phases=2 Linecode=1P_UG_AL_1/0_Brenau_0_416_0_2_2

New Line.l(r:udm6757-udt1704lv) Units=km Length=0.0371485 bus1=udt1704lv.1.2 bus2=udm6757.1.2 switch=n enabled=y phases=2 Linecode=1P_OH_AL_4/0_Zuzara_0_416_0_2_2

New Line.l(r:p1ulv19031-udm6759) Units=km Length=0.0234122 bus1=udm6759.1.2 bus2=p1ulv19031.1.2 switch=n enabled=y phases=2 Linecode=1P_OH_AL_2/0_Rucina_0_416_0_2_2

New Line.l(r:p1ulv17507-udm6758) Units=km Length=0.0261508 bus1=udm6758.1.2 bus2=p1ulv17507.1.2 switch=n enabled=y phases=2 Linecode=1P_OH_AL_2/0_Rucina_0_416_0_2_2

New Line.l(r:udm6758-udm6759) Units=km Length=0.0185695 bus1=udm6759.1.2 bus2=udm6758.1.2 switch=n enabled=y phases=2 Linecode=1P_OH_AL_2/0_Rucina_0_416_0_2_2

New Line.l(r:udm6759-udt1704lv) Units=km Length=0.0185819 bus1=udt1704lv.1.2 bus2=udm6759.1.2 switch=n enabled=y phases=2 Linecode=1P_OH_AL_2/0_Rucina_0_416_0_2_2

New Line.l(r:p1ulv3588-udm6760) Units=km Length=0.0151602 bus1=udm6760.1.2 bus2=p1ulv3588.1.2 switch=n enabled=y phases=2 Linecode=1P_UG_AL_1/0_Brenau_0_416_0_2_2

New Line.l(r:p1ulv15378-udm6763) Units=km Length=0.0128677 bus1=udm6763.1.2 bus2=p1ulv15378.1.2 switch=n enabled=y phases=2 Linecode=1P_UG_AL_1/0_Brenau_0_416_0_2_2

New Line.l(r:p1ulv20414-udm6763) Units=km Length=0.014484 bus1=udm6763.1.2 bus2=p1ulv20414.1.2 switch=n enabled=y phases=2 Linecode=1P_UG_AL_1/0_Brenau_0_416_0_2_2

New Line.l(r:udm6760-udm6763) Units=km Length=0.024694800000000003 bus1=udm6760.1.2 bus2=udm6763.1.2 switch=n enabled=y phases=2 Linecode=1P_UG_AL_1/0_Brenau_0_416_0_2_2

New Line.l(r:p1ulv25773-udm6766) Units=km Length=0.0141718 bus1=udm6766.1.2 bus2=p1ulv25773.1.2 switch=n enabled=y phases=2 Linecode=1P_OH_AL_2/0_Rucina_0_416_0_2_2

New Line.l(r:udm6760-udm6766) Units=km Length=0.0180946 bus1=udm6760.1.2 bus2=udm6766.1.2 switch=n enabled=y phases=2 Linecode=1P_OH_AL_2/0_Rucina_0_416_0_2_2

New Line.l(r:udm6760-udt1705lv) Units=km Length=0.0128914 bus1=udt1705lv.1.2 bus2=udm6760.1.2 switch=n enabled=y phases=2 Linecode=1P_OH_AL_2/0_Rucina_0_416_0_2_2

New Line.l(r:p1ulv16446-udm6764) Units=km Length=0.0174222 bus1=udm6764.1.2 bus2=p1ulv16446.1.2 switch=n enabled=y phases=2 Linecode=1P_OH_AL_2/0_Rucina_0_416_0_2_2

New Line.l(r:p1ulv13506-udm6761) Units=km Length=0.0227301 bus1=udm6761.1.2 bus2=p1ulv13506.1.2 switch=n enabled=y phases=2 Linecode=1P_OH_AL_2/0_Rucina_0_416_0_2_2

New Line.l(r:p1ulv14809-udm6761) Units=km Length=0.0156074 bus1=udm6761.1.2 bus2=p1ulv14809.1.2 switch=n enabled=y phases=2 Linecode=1P_OH_AL_2/0_Rucina_0_416_0_2_2

New Line.l(r:udm6761-udm6764) Units=km Length=0.0162956 bus1=udm6764.1.2 bus2=udm6761.1.2 switch=n enabled=y phases=2 Linecode=1P_OH_AL_2/0_Rucina_0_416_0_2_2

New Line.l(r:udm6764-udt1705lv) Units=km Length=0.0128914 bus1=udt1705lv.1.2 bus2=udm6764.1.2 switch=n enabled=y phases=2 Linecode=1P_OH_AL_2/0_Rucina_0_416_0_2_2

New Line.l(r:p1ulv3590-udm6767) Units=km Length=0.0199942 bus1=udm6767.1.2 bus2=p1ulv3590.1.2 switch=n enabled=y phases=2 Linecode=1P_OH_AL_2/0_Rucina_0_416_0_2_2

New Line.l(r:udm6767-udt1706lv) Units=km Length=0.0180973 bus1=udt1706lv.1.2 bus2=udm6767.1.2 switch=n enabled=y phases=2 Linecode=1P_OH_AL_2/0_Rucina_0_416_0_2_2

New Line.l(r:p1ulv15499-udm6768) Units=km Length=0.021712100000000005 bus1=udm6768.1.2 bus2=p1ulv15499.1.2 switch=n enabled=y phases=2 Linecode=1P_OH_AL_2/0_Rucina_0_416_0_2_2

New Line.l(r:p1ulv32513-udm6768) Units=km Length=0.0154658 bus1=udm6768.1.2 bus2=p1ulv32513.1.2 switch=n enabled=y phases=2 Linecode=1P_OH_AL_2/0_Rucina_0_416_0_2_2

New Line.l(r:udm6768-udt1706lv) Units=km Length=0.0180946 bus1=udt1706lv.1.2 bus2=udm6768.1.2 switch=n enabled=y phases=2 Linecode=1P_OH_AL_2/0_Rucina_0_416_0_2_2

New Line.l(r:p1ulv3591-udt1707lv) Units=km Length=0.0182488 bus1=udt1707lv.1.2 bus2=p1ulv3591.1.2 switch=n enabled=y phases=2 Linecode=1P_UG_AL_1/0_Brenau_0_416_0_2_2

New Line.l(r:p1ulv21643-udm6771) Units=km Length=0.017644 bus1=udm6771.1.2 bus2=p1ulv21643.1.2 switch=n enabled=y phases=2 Linecode=1P_UG_AL_1/0_Brenau_0_416_0_2_2

New Line.l(r:udm6771-udt1707lv) Units=km Length=0.00938889 bus1=udt1707lv.1.2 bus2=udm6771.1.2 switch=n enabled=y phases=2 Linecode=1P_UG_AL_1/0_Brenau_0_416_0_2_2

New Line.l(r:p1ulv25640-udm6772) Units=km Length=0.0144378 bus1=udm6772.1.2 bus2=p1ulv25640.1.2 switch=n enabled=y phases=2 Linecode=1P_UG_AL_1/0_Brenau_0_416_0_2_2

New Line.l(r:udm6772-udt1707lv) Units=km Length=0.00939872 bus1=udt1707lv.1.2 bus2=udm6772.1.2 switch=n enabled=y phases=2 Linecode=1P_UG_AL_1/0_Brenau_0_416_0_2_2

New Line.l(r:p1ulv37441-udt1708lv) Units=km Length=0.0148601 bus1=udt1708lv.1.2 bus2=p1ulv37441.1.2 switch=n enabled=y phases=2 Linecode=1P_OH_AL_2/0_Rucina_0_416_0_2_2

New Line.l(r:p1ulv3592-udm6773) Units=km Length=0.015734 bus1=udm6773.1.2 bus2=p1ulv3592.1.2 switch=n enabled=y phases=2 Linecode=1P_OH_AL_2/0_Rucina_0_416_0_2_2

New Line.l(r:p1ulv13890-udm6775) Units=km Length=0.0160002 bus1=udm6775.1.2 bus2=p1ulv13890.1.2 switch=n enabled=y phases=2 Linecode=1P_OH_AL_2/0_Rucina_0_416_0_2_2

New Line.l(r:udm6773-udm6775) Units=km Length=0.0184743 bus1=udm6773.1.2 bus2=udm6775.1.2 switch=n enabled=y phases=2 Linecode=1P_OH_AL_2/0_Rucina_0_416_0_2_2

New Line.l(r:udm6773-udt1708lv) Units=km Length=0.0184743 bus1=udt1708lv.1.2 bus2=udm6773.1.2 switch=n enabled=y phases=2 Linecode=1P_OH_AL_2/0_Rucina_0_416_0_2_2

New Line.l(r:p1ulv13626-udm6774) Units=km Length=0.00953387 bus1=udm6774.1.2 bus2=p1ulv13626.1.2 switch=n enabled=y phases=2 Linecode=1P_OH_AL_2/0_Rucina_0_416_0_2_2

New Line.l(r:udm6774-udt1708lv) Units=km Length=0.0184743 bus1=udt1708lv.1.2 bus2=udm6774.1.2 switch=n enabled=y phases=2 Linecode=1P_OH_AL_2/0_Rucina_0_416_0_2_2

New Line.l(r:p1ulv13245-udt1709lv) Units=km Length=0.0100639 bus1=udt1709lv.1.2 bus2=p1ulv13245.1.2 switch=n enabled=y phases=2 Linecode=1P_UG_AL_1/0_Brenau_0_416_0_2_2

New Line.l(r:p1ulv16918-udm6779) Units=km Length=0.0178797 bus1=udm6779.1.2 bus2=p1ulv16918.1.2 switch=n enabled=y phases=2 Linecode=1P_UG_AL_1/0_Brenau_0_416_0_2_2

New Line.l(r:udm6779-udt1709lv) Units=km Length=0.0280038 bus1=udt1709lv.1.2 bus2=udm6779.1.2 switch=n enabled=y phases=2 Linecode=1P_UG_AL_1/0_Brenau_0_416_0_2_2

New Line.l(r:p1ulv23313-udm6780) Units=km Length=0.00972433 bus1=udm6780.1.2 bus2=p1ulv23313.1.2 switch=n enabled=y phases=2 Linecode=1P_UG_AL_1/0_Brenau_0_416_0_2_2

New Line.l(r:p1ulv3593-udm6777) Units=km Length=0.010526 bus1=udm6777.1.2 bus2=p1ulv3593.1.2 switch=n enabled=y phases=2 Linecode=1P_UG_AL_1/0_Brenau_0_416_0_2_2

New Line.l(r:udm6777-udm6780) Units=km Length=0.00940019 bus1=udm6780.1.2 bus2=udm6777.1.2 switch=n enabled=y phases=2 Linecode=1P_UG_AL_1/0_Brenau_0_416_0_2_2

New Line.l(r:udm6780-udt1709lv) Units=km Length=0.00940013 bus1=udt1709lv.1.2 bus2=udm6780.1.2 switch=n enabled=y phases=2 Linecode=1P_UG_AL_1/0_Brenau_0_416_0_2_2

New Line.l(r:p1ulv30973-udt2209lv) Units=km Length=0.0157432 bus1=udt2209lv.1.2 bus2=p1ulv30973.1.2 switch=n enabled=y phases=2 Linecode=1P_UG_AL_1/0_Brenau_0_416_0_2_2

New Line.l(r:p1ulv4851-udm8836) Units=km Length=0.012302900000000002 bus1=udm8836.1.2 bus2=p1ulv4851.1.2 switch=n enabled=y phases=2 Linecode=1P_UG_AL_1/0_Brenau_0_416_0_2_2

New Line.l(r:p1ulv34340-udm8840) Units=km Length=0.0167344 bus1=udm8840.1.2 bus2=p1ulv34340.1.2 switch=n enabled=y phases=2 Linecode=1P_UG_AL_1/0_Brenau_0_416_0_2_2

New Line.l(r:p1ulv35866-udm8841) Units=km Length=0.0156366 bus1=udm8841.1.2 bus2=p1ulv35866.1.2 switch=n enabled=y phases=2 Linecode=1P_UG_AL_1/0_Brenau_0_416_0_2_2

New Line.l(r:udm8840-udm8841) Units=km Length=0.009793130000000002 bus1=udm8840.1.2 bus2=udm8841.1.2 switch=n enabled=y phases=2 Linecode=1P_UG_AL_1/0_Brenau_0_416_0_2_2

New Line.l(r:udm8836-udm8840) Units=km Length=0.00978902 bus1=udm8836.1.2 bus2=udm8840.1.2 switch=n enabled=y phases=2 Linecode=1P_UG_AL_1/0_Brenau_0_416_0_2_2

New Line.l(r:udm8836-udt2209lv) Units=km Length=0.009793130000000002 bus1=udt2209lv.1.2 bus2=udm8836.1.2 switch=n enabled=y phases=2 Linecode=1P_UG_AL_4/0_Sweetbriar_0_416_0_2_2

New Line.l(r:p1ulv14758-udm8837) Units=km Length=0.0148245 bus1=udm8837.1.2 bus2=p1ulv14758.1.2 switch=n enabled=y phases=2 Linecode=1P_UG_AL_1/0_Brenau_0_416_0_2_2

New Line.l(r:p1ulv25943-udm8837) Units=km Length=0.0157434 bus1=udm8837.1.2 bus2=p1ulv25943.1.2 switch=n enabled=y phases=2 Linecode=1P_UG_AL_1/0_Brenau_0_416_0_2_2

New Line.l(r:udm8837-udt2209lv) Units=km Length=0.0293794 bus1=udt2209lv.1.2 bus2=udm8837.1.2 switch=n enabled=y phases=2 Linecode=1P_UG_AL_1/0_Brenau_0_416_0_2_2

New Line.l(r:p1ulv5922-udm10765) Units=km Length=0.0136201 bus1=udm10765.1.2 bus2=p1ulv5922.1.2 switch=n enabled=y phases=2 Linecode=1P_UG_AL_1/0_Brenau_0_416_0_2_2

New Line.l(r:p1ulv38460-udm10765) Units=km Length=0.012420800000000001 bus1=udm10765.1.2 bus2=p1ulv38460.1.2 switch=n enabled=y phases=2 Linecode=1P_UG_AL_1/0_Brenau_0_416_0_2_2

New Line.l(r:p1ulv31474-udm10766) Units=km Length=0.0155233 bus1=udm10766.1.2 bus2=p1ulv31474.1.2 switch=n enabled=y phases=2 Linecode=1P_UG_AL_1/0_Brenau_0_416_0_2_2

New Line.l(r:p1ulv33277-udm10767) Units=km Length=0.0126334 bus1=udm10767.1.2 bus2=p1ulv33277.1.2 switch=n enabled=y phases=2 Linecode=1P_UG_AL_1/0_Brenau_0_416_0_2_2

New Line.l(r:udm10766-udm10767) Units=km Length=0.0174034 bus1=udm10766.1.2 bus2=udm10767.1.2 switch=n enabled=y phases=2 Linecode=1P_UG_AL_1/0_Brenau_0_416_0_2_2

New Line.l(r:udm10765-udm10766) Units=km Length=0.00869899 bus1=udm10765.1.2 bus2=udm10766.1.2 switch=n enabled=y phases=2 Linecode=1P_UG_AL_1/0_Brenau_0_416_0_2_2

New Line.l(r:udm10765-udt2714lv) Units=km Length=0.00869599 bus1=udt2714lv.1.2 bus2=udm10765.1.2 switch=n enabled=y phases=2 Linecode=1P_UG_AL_1/0_Brenau_0_416_0_2_2

New Line.l(r:p1ulv39360-udm10769) Units=km Length=0.012673 bus1=udm10769.1.2 bus2=p1ulv39360.1.2 switch=n enabled=y phases=2 Linecode=1P_UG_AL_1/0_Brenau_0_416_0_2_2

New Line.l(r:p1ulv41148-udm10769) Units=km Length=0.0130049 bus1=udm10769.1.2 bus2=p1ulv41148.1.2 switch=n enabled=y phases=2 Linecode=1P_UG_AL_1/0_Brenau_0_416_0_2_2

New Line.l(r:udm10769-udt2714lv) Units=km Length=0.0261078 bus1=udt2714lv.1.2 bus2=udm10769.1.2 switch=n enabled=y phases=2 Linecode=1P_UG_AL_1/0_Brenau_0_416_0_2_2

New Line.l(r:p1ulv5924-udt2715lv) Units=km Length=0.0182695 bus1=udt2715lv.1.2 bus2=p1ulv5924.1.2 switch=n enabled=y phases=2 Linecode=1P_UG_AL_1/0_Brenau_0_416_0_2_2

New Line.l(r:p1ulv29978-udm10773) Units=km Length=0.0165218 bus1=udm10773.1.2 bus2=p1ulv29978.1.2 switch=n enabled=y phases=2 Linecode=1P_UG_AL_1/0_Brenau_0_416_0_2_2

New Line.l(r:p1ulv27097-udm10772) Units=km Length=0.0122151 bus1=udm10772.1.2 bus2=p1ulv27097.1.2 switch=n enabled=y phases=2 Linecode=1P_UG_AL_1/0_Brenau_0_416_0_2_2

New Line.l(r:p1ulv38915-udm10772) Units=km Length=0.0104158 bus1=udm10772.1.2 bus2=p1ulv38915.1.2 switch=n enabled=y phases=2 Linecode=1P_UG_AL_1/0_Brenau_0_416_0_2_2

New Line.l(r:udm10772-udm10773) Units=km Length=0.0572735 bus1=udm10773.1.2 bus2=udm10772.1.2 switch=n enabled=y phases=2 Linecode=1P_UG_AL_1/0_Brenau_0_416_0_2_2

New Line.l(r:udm10773-udt2715lv) Units=km Length=0.00935505 bus1=udt2715lv.1.2 bus2=udm10773.1.2 switch=n enabled=y phases=2 Linecode=1P_UG_AL_1/0_Brenau_0_416_0_2_2

New Line.l(r:p1ulv47206-udm10778) Units=km Length=0.0155426 bus1=udm10778.1.2 bus2=p1ulv47206.1.2 switch=n enabled=y phases=2 Linecode=1P_UG_AL_1/0_Brenau_0_416_0_2_2

New Line.l(r:p1ulv37145-udm10775) Units=km Length=0.0160589 bus1=udm10775.1.2 bus2=p1ulv37145.1.2 switch=n enabled=y phases=2 Linecode=1P_UG_AL_1/0_Brenau_0_416_0_2_2

New Line.l(r:p1ulv42354-udm10775) Units=km Length=0.0171843 bus1=udm10775.1.2 bus2=p1ulv42354.1.2 switch=n enabled=y phases=2 Linecode=1P_UG_AL_1/0_Brenau_0_416_0_2_2

New Line.l(r:p1ulv47820-udm10775) Units=km Length=0.0175437 bus1=udm10775.1.2 bus2=p1ulv47820.1.2 switch=n enabled=y phases=2 Linecode=1P_UG_AL_1/0_Brenau_0_416_0_2_2

New Line.l(r:p1ulv33203-udm10774) Units=km Length=0.0135595 bus1=udm10774.1.2 bus2=p1ulv33203.1.2 switch=n enabled=y phases=2 Linecode=1P_UG_AL_1/0_Brenau_0_416_0_2_2

New Line.l(r:udm10774-udm10775) Units=km Length=0.00934675 bus1=udm10775.1.2 bus2=udm10774.1.2 switch=n enabled=y phases=2 Linecode=1P_UG_AL_1/0_Brenau_0_416_0_2_2

New Line.l(r:udm10775-udm10778) Units=km Length=0.018696200000000003 bus1=udm10778.1.2 bus2=udm10775.1.2 switch=n enabled=y phases=2 Linecode=1P_UG_AL_2/0_Converse_0_416_0_2_2

New Line.l(r:udm10778-udt2715lv) Units=km Length=0.00934118 bus1=udt2715lv.1.2 bus2=udm10778.1.2 switch=n enabled=y phases=2 Linecode=1P_UG_AL_4/0_Sweetbriar_0_416_0_2_2

New Line.l(r:p1ulv5926-udt2717lv) Units=km Length=0.0129734 bus1=udt2717lv.1.2 bus2=p1ulv5926.1.2 switch=n enabled=y phases=2 Linecode=1P_UG_AL_1/0_Brenau_0_416_0_2_2

New Line.l(r:p1ulv28095-udt2717lv) Units=km Length=0.012090700000000001 bus1=udt2717lv.1.2 bus2=p1ulv28095.1.2 switch=n enabled=y phases=2 Linecode=1P_UG_AL_1/0_Brenau_0_416_0_2_2

New Line.l(r:p1ulv40681-udm10789) Units=km Length=0.0119234 bus1=udm10789.1.2 bus2=p1ulv40681.1.2 switch=n enabled=y phases=2 Linecode=1P_UG_AL_1/0_Brenau_0_416_0_2_2

New Line.l(r:udm10789-udt2717lv) Units=km Length=0.0377451 bus1=udt2717lv.1.2 bus2=udm10789.1.2 switch=n enabled=y phases=2 Linecode=1P_UG_AL_1/0_Brenau_0_416_0_2_2

New Line.l(r:p1ulv40892-udm10790) Units=km Length=0.0109458 bus1=udm10790.1.2 bus2=p1ulv40892.1.2 switch=n enabled=y phases=2 Linecode=1P_UG_AL_1/0_Brenau_0_416_0_2_2

New Line.l(r:udm10790-udt2717lv) Units=km Length=0.034507 bus1=udt2717lv.1.2 bus2=udm10790.1.2 switch=n enabled=y phases=2 Linecode=1P_UG_AL_1/0_Brenau_0_416_0_2_2

New Line.l(r:p1ulv47269-udt2718lv) Units=km Length=0.0149592 bus1=udt2718lv.1.2 bus2=p1ulv47269.1.2 switch=n enabled=y phases=2 Linecode=1P_UG_AL_1/0_Brenau_0_416_0_2_2

New Line.l(r:p1ulv5927-udm10791) Units=km Length=0.020205 bus1=udm10791.1.2 bus2=p1ulv5927.1.2 switch=n enabled=y phases=2 Linecode=1P_UG_AL_1/0_Brenau_0_416_0_2_2

New Line.l(r:p1ulv42410-udm10791) Units=km Length=0.0173613 bus1=udm10791.1.2 bus2=p1ulv42410.1.2 switch=n enabled=y phases=2 Linecode=1P_UG_AL_1/0_Brenau_0_416_0_2_2

New Line.l(r:p1ulv36449-udm10795) Units=km Length=0.0151301 bus1=udm10795.1.2 bus2=p1ulv36449.1.2 switch=n enabled=y phases=2 Linecode=1P_UG_AL_1/0_Brenau_0_416_0_2_2

New Line.l(r:udm10791-udm10795) Units=km Length=0.00944765 bus1=udm10791.1.2 bus2=udm10795.1.2 switch=n enabled=y phases=2 Linecode=1P_UG_AL_1/0_Brenau_0_416_0_2_2
