New Line.l(r:p1ulv60-udt49lv) Units=km Length=0.0310613 bus1=udt49lv.1.2 bus2=p1ulv60.1.2 switch=n enabled=y phases=2 Linecode=1P_OH_AL_4/0_Zuzara_0_416_0_2_2

New Line.l(r:p1ulv65-udm153) Units=km Length=0.0301268 bus1=udm153.1.2 bus2=p1ulv65.1.2 switch=n enabled=y phases=2 Linecode=1P_UG_AL_4/0_Sweetbriar_0_416_0_2_2

New Line.l(r:udm153-udt53lv) Units=km Length=0.019548 bus1=udt53lv.1.2 bus2=udm153.1.2 switch=n enabled=y phases=2 Linecode=1P_UG_AL_4/0_Sweetbriar_0_416_0_2_2

New Line.l(r:p1ulv37534-udm154) Units=km Length=0.0159922 bus1=udm154.1.2 bus2=p1ulv37534.1.2 switch=n enabled=y phases=2 Linecode=1P_UG_AL_1/0_Brenau_0_416_0_2_2

New Line.l(r:udm154-udt53lv) Units=km Length=0.019548 bus1=udt53lv.1.2 bus2=udm154.1.2 switch=n enabled=y phases=2 Linecode=1P_UG_AL_1/0_Brenau_0_416_0_2_2

New Line.l(r:p1ulv68-udt55lv) Units=km Length=0.0214277 bus1=udt55lv.1.2 bus2=p1ulv68.1.2 switch=n enabled=y phases=2 Linecode=1P_OH_AL_2/0_Rucina_0_416_0_2_2

New Line.l(r:p1ulv69-udm158) Units=km Length=0.041836 bus1=udm158.1.2 bus2=p1ulv69.1.2 switch=n enabled=y phases=2 Linecode=1P_OH_AL_4/0_Zuzara_0_416_0_2_2

New Line.l(r:udm158-udt56lv) Units=km Length=0.0198971 bus1=udt56lv.1.2 bus2=udm158.1.2 switch=n enabled=y phases=2 Linecode=1P_OH_AL_2/0_Rucina_0_416_0_2_2

New Line.l(r:p1ulv44504-udm159) Units=km Length=0.021858000000000002 bus1=udm159.1.2 bus2=p1ulv44504.1.2 switch=n enabled=y phases=2 Linecode=1P_OH_AL_2/0_Rucina_0_416_0_2_2

New Line.l(r:udm159-udt56lv) Units=km Length=0.0199026 bus1=udt56lv.1.2 bus2=udm159.1.2 switch=n enabled=y phases=2 Linecode=1P_OH_AL_2/0_Rucina_0_416_0_2_2

New Line.l(r:p1ulv42477-udt58lv) Units=km Length=0.0169811 bus1=udt58lv.1.2 bus2=p1ulv42477.1.2 switch=n enabled=y phases=2 Linecode=1P_UG_AL_1/0_Brenau_0_416_0_2_2

New Line.l(r:p1ulv71-udm162) Units=km Length=0.034567 bus1=udm162.1.2 bus2=p1ulv71.1.2 switch=n enabled=y phases=2 Linecode=1P_UG_AL_1/0_Brenau_0_416_0_2_2

New Line.l(r:p1ulv32959-udm162) Units=km Length=0.012995300000000001 bus1=udm162.1.2 bus2=p1ulv32959.1.2 switch=n enabled=y phases=2 Linecode=1P_UG_AL_1/0_Brenau_0_416_0_2_2

New Line.l(r:udm162-udt58lv) Units=km Length=0.00993469 bus1=udt58lv.1.2 bus2=udm162.1.2 switch=n enabled=y phases=2 Linecode=1P_UG_AL_1/0_Brenau_0_416_0_2_2

New Line.l(r:p1ulv33910-udm164) Units=km Length=0.0186908 bus1=udm164.1.2 bus2=p1ulv33910.1.2 switch=n enabled=y phases=2 Linecode=1P_UG_AL_1/0_Brenau_0_416_0_2_2

New Line.l(r:udm164-udt58lv) Units=km Length=0.0198694 bus1=udt58lv.1.2 bus2=udm164.1.2 switch=n enabled=y phases=2 Linecode=1P_UG_AL_1/0_Brenau_0_416_0_2_2

New Line.l(r:p1ulv73-udt60lv) Units=km Length=0.0321565 bus1=udt60lv.1.2 bus2=p1ulv73.1.2 switch=n enabled=y phases=2 Linecode=1P_UG_AL_1/0_Brenau_0_416_0_2_2

New Line.l(r:p1ulv36575-udm170) Units=km Length=0.0147815 bus1=udm170.1.2 bus2=p1ulv36575.1.2 switch=n enabled=y phases=2 Linecode=1P_UG_AL_1/0_Brenau_0_416_0_2_2

New Line.l(r:p1ulv29737-udm169) Units=km Length=0.0245635 bus1=udm169.1.2 bus2=p1ulv29737.1.2 switch=n enabled=y phases=2 Linecode=1P_OH_AL_2/0_Rucina_0_416_0_2_2

New Line.l(r:udm169-udm170) Units=km Length=0.0769742 bus1=udm170.1.2 bus2=udm169.1.2 switch=n enabled=y phases=2 Linecode=1P_OH_AL_4/0_Zuzara_0_416_0_2_2

New Line.l(r:udm170-udt60lv) Units=km Length=0.0189948 bus1=udt60lv.1.2 bus2=udm170.1.2 switch=n enabled=y phases=2 Linecode=1P_UG_AL_1/0_Brenau_0_416_0_2_2

New Line.l(r:p1ulv47072-udm171) Units=km Length=0.016214600000000003 bus1=udm171.1.2 bus2=p1ulv47072.1.2 switch=n enabled=y phases=2 Linecode=1P_UG_AL_1/0_Brenau_0_416_0_2_2

New Line.l(r:p1ulv28680-udm168) Units=km Length=0.0150573 bus1=udm168.1.2 bus2=p1ulv28680.1.2 switch=n enabled=y phases=2 Linecode=1P_UG_AL_4/0_Sweetbriar_0_416_0_2_2

New Line.l(r:udm168-udm171) Units=km Length=0.00949739 bus1=udm171.1.2 bus2=udm168.1.2 switch=n enabled=y phases=2 Linecode=1P_UG_AL_4/0_Sweetbriar_0_416_0_2_2

New Line.l(r:udm171-udt60lv) Units=km Length=0.0189898 bus1=udt60lv.1.2 bus2=udm171.1.2 switch=n enabled=y phases=2 Linecode=1P_UG_AL_4/0_Sweetbriar_0_416_0_2_2

New Line.l(r:p1ulv74-udt61lv) Units=km Length=0.0241299 bus1=udt61lv.1.2 bus2=p1ulv74.1.2 switch=n enabled=y phases=2 Linecode=1P_OH_AL_2/0_Rucina_0_416_0_2_2

New Line.l(r:p1ulv5919-udt61lv) Units=km Length=0.0226283 bus1=udt61lv.1.2 bus2=p1ulv5919.1.2 switch=n enabled=y phases=2 Linecode=1P_OH_AL_2/0_Rucina_0_416_0_2_2

New Line.l(r:p1ulv28543-udm174) Units=km Length=0.0220937 bus1=udm174.1.2 bus2=p1ulv28543.1.2 switch=n enabled=y phases=2 Linecode=1P_OH_AL_2/0_Rucina_0_416_0_2_2

New Line.l(r:udm174-udt61lv) Units=km Length=0.0199587 bus1=udt61lv.1.2 bus2=udm174.1.2 switch=n enabled=y phases=2 Linecode=1P_OH_AL_2/0_Rucina_0_416_0_2_2

New Line.l(r:p1ulv50476-udm175) Units=km Length=0.0218384 bus1=udm175.1.2 bus2=p1ulv50476.1.2 switch=n enabled=y phases=2 Linecode=1P_OH_AL_2/0_Rucina_0_416_0_2_2

New Line.l(r:udm175-udt61lv) Units=km Length=0.0199614 bus1=udt61lv.1.2 bus2=udm175.1.2 switch=n enabled=y phases=2 Linecode=1P_OH_AL_2/0_Rucina_0_416_0_2_2

New Line.l(r:p1ulv28915-udt63lv) Units=km Length=0.0219061 bus1=udt63lv.1.2 bus2=p1ulv28915.1.2 switch=n enabled=y phases=2 Linecode=1P_OH_AL_2/0_Rucina_0_416_0_2_2

New Line.l(r:p1ulv76-udm177) Units=km Length=0.0229356 bus1=udm177.1.2 bus2=p1ulv76.1.2 switch=n enabled=y phases=2 Linecode=1P_OH_AL_2/0_Rucina_0_416_0_2_2

New Line.l(r:udm177-udt63lv) Units=km Length=0.0199614 bus1=udt63lv.1.2 bus2=udm177.1.2 switch=n enabled=y phases=2 Linecode=1P_OH_AL_2/0_Rucina_0_416_0_2_2

New Line.l(r:p1ulv45766-udm179) Units=km Length=0.0215859 bus1=udm179.1.2 bus2=p1ulv45766.1.2 switch=n enabled=y phases=2 Linecode=1P_OH_AL_2/0_Rucina_0_416_0_2_2

New Line.l(r:p1ulv49418-udm180) Units=km Length=0.022507700000000002 bus1=udm180.1.2 bus2=p1ulv49418.1.2 switch=n enabled=y phases=2 Linecode=1P_OH_AL_2/0_Rucina_0_416_0_2_2

New Line.l(r:udm179-udm180) Units=km Length=0.0177365 bus1=udm179.1.2 bus2=udm180.1.2 switch=n enabled=y phases=2 Linecode=1P_OH_AL_2/0_Rucina_0_416_0_2_2

New Line.l(r:udm179-udt63lv) Units=km Length=0.0177421 bus1=udt63lv.1.2 bus2=udm179.1.2 switch=n enabled=y phases=2 Linecode=1P_OH_AL_2/0_Rucina_0_416_0_2_2

New Line.l(r:p1ulv87-udm193) Units=km Length=0.0194037 bus1=udm193.1.2 bus2=p1ulv87.1.2 switch=n enabled=y phases=2 Linecode=1P_UG_AL_1/0_Brenau_0_416_0_2_2

New Line.l(r:udm193-udt74lv) Units=km Length=0.0314311 bus1=udt74lv.1.2 bus2=udm193.1.2 switch=n enabled=y phases=2 Linecode=1P_UG_AL_1/0_Brenau_0_416_0_2_2

New Line.l(r:p1ulv26574-udm194) Units=km Length=0.0166378 bus1=udm194.1.2 bus2=p1ulv26574.1.2 switch=n enabled=y phases=2 Linecode=1P_UG_AL_1/0_Brenau_0_416_0_2_2

New Line.l(r:p1ulv30583-udm194) Units=km Length=0.038631 bus1=udm194.1.2 bus2=p1ulv30583.1.2 switch=n enabled=y phases=2 Linecode=1P_UG_AL_1/0_Brenau_0_416_0_2_2

New Line.l(r:udm194-udt74lv) Units=km Length=0.0134854 bus1=udt74lv.1.2 bus2=udm194.1.2 switch=n enabled=y phases=2 Linecode=1P_UG_AL_1/0_Brenau_0_416_0_2_2

New Line.l(r:p1ulv88-udt75lv) Units=km Length=0.0167626 bus1=udt75lv.1.2 bus2=p1ulv88.1.2 switch=n enabled=y phases=2 Linecode=1P_UG_AL_2/0_Converse_0_416_0_2_2

New Line.l(r:p1ulv89-udm197) Units=km Length=0.027487100000000004 bus1=udm197.1.2 bus2=p1ulv89.1.2 switch=n enabled=y phases=2 Linecode=1P_UG_AL_1/0_Brenau_0_416_0_2_2

New Line.l(r:udm197-udt76lv) Units=km Length=0.0274222 bus1=udt76lv.1.2 bus2=udm197.1.2 switch=n enabled=y phases=2 Linecode=1P_UG_AL_1/0_Brenau_0_416_0_2_2

New Line.l(r:p1ulv38382-udm198) Units=km Length=0.014493800000000001 bus1=udm198.1.2 bus2=p1ulv38382.1.2 switch=n enabled=y phases=2 Linecode=1P_UG_AL_1/0_Brenau_0_416_0_2_2

New Line.l(r:udm198-udt76lv) Units=km Length=0.0367135 bus1=udt76lv.1.2 bus2=udm198.1.2 switch=n enabled=y phases=2 Linecode=1P_UG_AL_1/0_Brenau_0_416_0_2_2

New Line.l(r:p1ulv40927-udt77lv) Units=km Length=0.0113397 bus1=udt77lv.1.2 bus2=p1ulv40927.1.2 switch=n enabled=y phases=2 Linecode=1P_UG_AL_1/0_Brenau_0_416_0_2_2

New Line.l(r:p1ulv90-udm199) Units=km Length=0.0282218 bus1=udm199.1.2 bus2=p1ulv90.1.2 switch=n enabled=y phases=2 Linecode=1P_UG_AL_1/0_Brenau_0_416_0_2_2

New Line.l(r:p1ulv50474-udm206) Units=km Length=0.016535700000000004 bus1=udm206.1.2 bus2=p1ulv50474.1.2 switch=n enabled=y phases=2 Linecode=1P_UG_AL_1/0_Brenau_0_416_0_2_2

New Line.l(r:p1ulv39125-udm204) Units=km Length=0.0139324 bus1=udm204.1.2 bus2=p1ulv39125.1.2 switch=n enabled=y phases=2 Linecode=1P_UG_AL_1/0_Brenau_0_416_0_2_2

New Line.l(r:p1ulv38607-udm203) Units=km Length=0.0140092 bus1=udm203.1.2 bus2=p1ulv38607.1.2 switch=n enabled=y phases=2 Linecode=1P_UG_AL_1/0_Brenau_0_416_0_2_2

New Line.l(r:udm203-udm204) Units=km Length=0.00969092 bus1=udm204.1.2 bus2=udm203.1.2 switch=n enabled=y phases=2 Linecode=1P_UG_AL_1/0_Brenau_0_416_0_2_2

New Line.l(r:udm204-udm206) Units=km Length=0.00968093 bus1=udm206.1.2 bus2=udm204.1.2 switch=n enabled=y phases=2 Linecode=1P_UG_AL_1/0_Brenau_0_416_0_2_2

New Line.l(r:udm199-udm206) Units=km Length=0.00969045 bus1=udm199.1.2 bus2=udm206.1.2 switch=n enabled=y phases=2 Linecode=1P_UG_AL_2/0_Converse_0_416_0_2_2

New Line.l(r:udm199-udt77lv) Units=km Length=0.00969092 bus1=udt77lv.1.2 bus2=udm199.1.2 switch=n enabled=y phases=2 Linecode=1P_UG_AL_4/0_Sweetbriar_0_416_0_2_2

New Line.l(r:p1ulv27807-udm200) Units=km Length=0.0135586 bus1=udm200.1.2 bus2=p1ulv27807.1.2 switch=n enabled=y phases=2 Linecode=1P_UG_AL_1/0_Brenau_0_416_0_2_2

New Line.l(r:p1ulv28163-udm201) Units=km Length=0.0120806 bus1=udm201.1.2 bus2=p1ulv28163.1.2 switch=n enabled=y phases=2 Linecode=1P_UG_AL_1/0_Brenau_0_416_0_2_2

New Line.l(r:p1ulv31405-udm201) Units=km Length=0.019421800000000003 bus1=udm201.1.2 bus2=p1ulv31405.1.2 switch=n enabled=y phases=2 Linecode=1P_UG_AL_1/0_Brenau_0_416_0_2_2

New Line.l(r:udm200-udm201) Units=km Length=0.0193719 bus1=udm200.1.2 bus2=udm201.1.2 switch=n enabled=y phases=2 Linecode=1P_UG_AL_1/0_Brenau_0_416_0_2_2

New Line.l(r:udm200-udt77lv) Units=km Length=0.00969092 bus1=udt77lv.1.2 bus2=udm200.1.2 switch=n enabled=y phases=2 Linecode=1P_UG_AL_2/0_Converse_0_416_0_2_2

New Line.l(r:p1ulv92-udt78lv) Units=km Length=0.0194813 bus1=udt78lv.1.2 bus2=p1ulv92.1.2 switch=n enabled=y phases=2 Linecode=1P_UG_AL_1/0_Brenau_0_416_0_2_2

New Line.l(r:p1ulv91-udm207) Units=km Length=0.016851 bus1=udm207.1.2 bus2=p1ulv91.1.2 switch=n enabled=y phases=2 Linecode=1P_UG_AL_1/0_Brenau_0_416_0_2_2

New Line.l(r:p1ulv26360-udm207) Units=km Length=0.0137217 bus1=udm207.1.2 bus2=p1ulv26360.1.2 switch=n enabled=y phases=2 Linecode=1P_UG_AL_1/0_Brenau_0_416_0_2_2

New Line.l(r:p1ulv96-udm210) Units=km Length=0.0172269 bus1=udm210.1.2 bus2=p1ulv96.1.2 switch=n enabled=y phases=2 Linecode=1P_UG_AL_1/0_Brenau_0_416_0_2_2

New Line.l(r:p1ulv26725-udm210) Units=km Length=0.0136348 bus1=udm210.1.2 bus2=p1ulv26725.1.2 switch=n enabled=y phases=2 Linecode=1P_UG_AL_1/0_Brenau_0_416_0_2_2

New Line.l(r:udm207-udm210) Units=km Length=0.0192535 bus1=udm207.1.2 bus2=udm210.1.2 switch=n enabled=y phases=2 Linecode=1P_UG_AL_1/0_Brenau_0_416_0_2_2

New Line.l(r:udm207-udt78lv) Units=km Length=0.00962149 bus1=udt78lv.1.2 bus2=udm207.1.2 switch=n enabled=y phases=2 Linecode=1P_UG_AL_4/0_Sweetbriar_0_416_0_2_2

New Line.l(r:p1ulv94-udm209) Units=km Length=0.013896 bus1=udm209.1.2 bus2=p1ulv94.1.2 switch=n enabled=y phases=2 Linecode=1P_UG_AL_1/0_Brenau_0_416_0_2_2

New Line.l(r:p1ulv44569-udm209) Units=km Length=0.00632299 bus1=udm209.1.2 bus2=p1ulv44569.1.2 switch=n enabled=y phases=2 Linecode=1P_UG_AL_1/0_Brenau_0_416_0_2_2

New Line.l(r:udm209-udt78lv) Units=km Length=0.0491142 bus1=udt78lv.1.2 bus2=udm209.1.2 switch=n enabled=y phases=2 Linecode=1P_UG_AL_1/0_Brenau_0_416_0_2_2

New Line.l(r:p1ulv93-udm214) Units=km Length=0.0125735 bus1=udm214.1.2 bus2=p1ulv93.1.2 switch=n enabled=y phases=2 Linecode=1P_UG_AL_1/0_Brenau_0_416_0_2_2

New Line.l(r:p1ulv16763-udm215) Units=km Length=0.0116791 bus1=udm215.1.2 bus2=p1ulv16763.1.2 switch=n enabled=y phases=2 Linecode=1P_UG_AL_1/0_Brenau_0_416_0_2_2

New Line.l(r:udm214-udm215) Units=km Length=0.0297021 bus1=udm214.1.2 bus2=udm215.1.2 switch=n enabled=y phases=2 Linecode=1P_UG_AL_1/0_Brenau_0_416_0_2_2

New Line.l(r:p1ulv26955-udm216) Units=km Length=0.0158939 bus1=udm216.1.2 bus2=p1ulv26955.1.2 switch=n enabled=y phases=2 Linecode=1P_UG_AL_1/0_Brenau_0_416_0_2_2

New Line.l(r:udm214-udm216) Units=km Length=0.0467615 bus1=udm214.1.2 bus2=udm216.1.2 switch=n enabled=y phases=2 Linecode=1P_UG_AL_1/0_Brenau_0_416_0_2_2

New Line.l(r:udm214-udt79lv) Units=km Length=0.0426026 bus1=udt79lv.1.2 bus2=udm214.1.2 switch=n enabled=y phases=2 Linecode=1P_UG_AL_1/0_Brenau_0_416_0_2_2

New Line.l(r:p1ulv28608-udm217) Units=km Length=0.012405700000000002 bus1=udm217.1.2 bus2=p1ulv28608.1.2 switch=n enabled=y phases=2 Linecode=1P_UG_AL_1/0_Brenau_0_416_0_2_2

New Line.l(r:udm217-udt79lv) Units=km Length=0.0501483 bus1=udt79lv.1.2 bus2=udm217.1.2 switch=n enabled=y phases=2 Linecode=1P_UG_AL_1/0_Brenau_0_416_0_2_2

New Line.l(r:p1ulv95-udm218) Units=km Length=0.01606 bus1=udm218.1.2 bus2=p1ulv95.1.2 switch=n enabled=y phases=2 Linecode=1P_UG_AL_1/0_Brenau_0_416_0_2_2

New Line.l(r:udm218-udt80lv) Units=km Length=0.0183897 bus1=udt80lv.1.2 bus2=udm218.1.2 switch=n enabled=y phases=2 Linecode=1P_UG_AL_1/0_Brenau_0_416_0_2_2

New Line.l(r:p1ulv36040-udm220) Units=km Length=0.0179036 bus1=udm220.1.2 bus2=p1ulv36040.1.2 switch=n enabled=y phases=2 Linecode=1P_UG_AL_1/0_Brenau_0_416_0_2_2

New Line.l(r:p1ulv32822-udm219) Units=km Length=0.0266954 bus1=udm219.1.2 bus2=p1ulv32822.1.2 switch=n enabled=y phases=2 Linecode=1P_UG_AL_1/0_Brenau_0_416_0_2_2

New Line.l(r:udm219-udm220) Units=km Length=0.0773443 bus1=udm220.1.2 bus2=udm219.1.2 switch=n enabled=y phases=2 Linecode=1P_UG_AL_1/0_Brenau_0_416_0_2_2

New Line.l(r:udm220-udt80lv) Units=km Length=0.0091896 bus1=udt80lv.1.2 bus2=udm220.1.2 switch=n enabled=y phases=2 Linecode=1P_UG_AL_1/0_Brenau_0_416_0_2_2

New Line.l(r:p1ulv20097-udt81lv) Units=km Length=0.0139972 bus1=udt81lv.1.2 bus2=p1ulv20097.1.2 switch=n enabled=y phases=2 Linecode=1P_UG_AL_1/0_Brenau_0_416_0_2_2

New Line.l(r:p1ulv21684-udm223) Units=km Length=0.0147094 bus1=udm223.1.2 bus2=p1ulv21684.1.2 switch=n enabled=y phases=2 Linecode=1P_UG_AL_1/0_Brenau_0_416_0_2_2

New Line.l(r:p1ulv97-udm221) Units=km Length=0.0156748 bus1=udm221.1.2 bus2=p1ulv97.1.2 switch=n enabled=y phases=2 Linecode=1P_UG_AL_1/0_Brenau_0_416_0_2_2

New Line.l(r:p1ulv38454-udm226) Units=km Length=0.014494200000000002 bus1=udm226.1.2 bus2=p1ulv38454.1.2 switch=n enabled=y phases=2 Linecode=1P_UG_AL_1/0_Brenau_0_416_0_2_2

New Line.l(r:udm221-udm226) Units=km Length=0.00997205 bus1=udm221.1.2 bus2=udm226.1.2 switch=n enabled=y phases=2 Linecode=1P_UG_AL_1/0_Brenau_0_416_0_2_2

New Line.l(r:udm221-udm223) Units=km Length=0.00996255 bus1=udm223.1.2 bus2=udm221.1.2 switch=n enabled=y phases=2 Linecode=1P_UG_AL_1/0_Brenau_0_416_0_2_2

New Line.l(r:udm223-udt81lv) Units=km Length=0.00996206 bus1=udt81lv.1.2 bus2=udm223.1.2 switch=n enabled=y phases=2 Linecode=1P_UG_AL_2/0_Converse_0_416_0_2_2

New Line.l(r:p1ulv24420-udm224) Units=km Length=0.0148147 bus1=udm224.1.2 bus2=p1ulv24420.1.2 switch=n enabled=y phases=2 Linecode=1P_UG_AL_1/0_Brenau_0_416_0_2_2

New Line.l(r:p1ulv24448-udm225) Units=km Length=0.0166984 bus1=udm225.1.2 bus2=p1ulv24448.1.2 switch=n enabled=y phases=2 Linecode=1P_UG_AL_1/0_Brenau_0_416_0_2_2

New Line.l(r:udm224-udm225) Units=km Length=0.00997254 bus1=udm224.1.2 bus2=udm225.1.2 switch=n enabled=y phases=2 Linecode=1P_UG_AL_1/0_Brenau_0_416_0_2_2

New Line.l(r:udm224-udt81lv) Units=km Length=0.00996206 bus1=udt81lv.1.2 bus2=udm224.1.2 switch=n enabled=y phases=2 Linecode=1P_UG_AL_1/0_Brenau_0_416_0_2_2

New Line.l(r:p1ulv98-udt82lv) Units=km Length=0.013591100000000002 bus1=udt82lv.1.2 bus2=p1ulv98.1.2 switch=n enabled=y phases=2 Linecode=1P_UG_AL_1/0_Brenau_0_416_0_2_2

New Line.l(r:p1ulv37469-udt82lv) Units=km Length=0.0149951 bus1=udt82lv.1.2 bus2=p1ulv37469.1.2 switch=n enabled=y phases=2 Linecode=1P_UG_AL_1/0_Brenau_0_416_0_2_2

New Line.l(r:p1ulv38229-udm230) Units=km Length=0.0120867 bus1=udm230.1.2 bus2=p1ulv38229.1.2 switch=n enabled=y phases=2 Linecode=1P_UG_AL_1/0_Brenau_0_416_0_2_2

New Line.l(r:p1ulv31628-udm228) Units=km Length=0.0132132 bus1=udm228.1.2 bus2=p1ulv31628.1.2 switch=n enabled=y phases=2 Linecode=1P_UG_AL_1/0_Brenau_0_416_0_2_2

New Line.l(r:udm228-udm230) Units=km Length=0.057378500000000006 bus1=udm230.1.2 bus2=udm228.1.2 switch=n enabled=y phases=2 Linecode=1P_UG_AL_1/0_Brenau_0_416_0_2_2

New Line.l(r:udm230-udt82lv) Units=km Length=0.0675397 bus1=udt82lv.1.2 bus2=udm230.1.2 switch=n enabled=y phases=2 Linecode=1P_UG_AL_1/0_Brenau_0_416_0_2_2

New Line.l(r:p1ulv38831-udm231) Units=km Length=0.0141975 bus1=udm231.1.2 bus2=p1ulv38831.1.2 switch=n enabled=y phases=2 Linecode=1P_UG_AL_1/0_Brenau_0_416_0_2_2

New Line.l(r:p1ulv42206-udm231) Units=km Length=0.014959 bus1=udm231.1.2 bus2=p1ulv42206.1.2 switch=n enabled=y phases=2 Linecode=1P_UG_AL_1/0_Brenau_0_416_0_2_2

New Line.l(r:udm231-udt82lv) Units=km Length=0.0195736 bus1=udt82lv.1.2 bus2=udm231.1.2 switch=n enabled=y phases=2 Linecode=1P_UG_AL_1/0_Brenau_0_416_0_2_2

New Line.l(r:p1ulv17384-udt2140lv) Units=km Length=0.0368444 bus1=udt2140lv.1.2 bus2=p1ulv17384.1.2 switch=n enabled=y phases=2 Linecode=1P_OH_AL_4/0_Zuzara_0_416_0_2_2

New Line.l(r:p1ulv32391-udt2140lv) Units=km Length=0.0131679 bus1=udt2140lv.1.2 bus2=p1ulv32391.1.2 switch=n enabled=y phases=2 Linecode=1P_OH_AL_2/0_Rucina_0_416_0_2_2

New Line.l(r:p1ulv35780-udt2140lv) Units=km Length=0.014603200000000002 bus1=udt2140lv.1.2 bus2=p1ulv35780.1.2 switch=n enabled=y phases=2 Linecode=1P_OH_AL_2/0_Rucina_0_416_0_2_2

New Line.l(r:p1ulv4763-udm8609) Units=km Length=0.0138038 bus1=udm8609.1.2 bus2=p1ulv4763.1.2 switch=n enabled=y phases=2 Linecode=1P_OH_AL_2/0_Rucina_0_416_0_2_2

New Line.l(r:p1ulv17281-udm8609) Units=km Length=0.0349141 bus1=udm8609.1.2 bus2=p1ulv17281.1.2 switch=n enabled=y phases=2 Linecode=1P_OH_AL_4/0_Zuzara_0_416_0_2_2

New Line.l(r:p1ulv23636-udm8609) Units=km Length=0.014344600000000002 bus1=udm8609.1.2 bus2=p1ulv23636.1.2 switch=n enabled=y phases=2 Linecode=1P_OH_AL_2/0_Rucina_0_416_0_2_2

New Line.l(r:p1ulv13039-udm8610) Units=km Length=0.0146767 bus1=udm8610.1.2 bus2=p1ulv13039.1.2 switch=n enabled=y phases=2 Linecode=1P_OH_AL_2/0_Rucina_0_416_0_2_2

New Line.l(r:p1ulv21535-udm8610) Units=km Length=0.0137401 bus1=udm8610.1.2 bus2=p1ulv21535.1.2 switch=n enabled=y phases=2 Linecode=1P_OH_AL_2/0_Rucina_0_416_0_2_2

New Line.l(r:udm8609-udm8610) Units=km Length=0.0172463 bus1=udm8609.1.2 bus2=udm8610.1.2 switch=n enabled=y phases=2 Linecode=1P_OH_AL_2/0_Rucina_0_416_0_2_2

New Line.l(r:udm8609-udt2140lv) Units=km Length=0.0191971 bus1=udt2140lv.1.2 bus2=udm8609.1.2 switch=n enabled=y phases=2 Linecode=1P_OH_AL_2/0_Rucina_0_416_0_2_2

New Line.l(r:p1ulv13291-udm8611) Units=km Length=0.0152882 bus1=udm8611.1.2 bus2=p1ulv13291.1.2 switch=n enabled=y phases=2 Linecode=1P_OH_AL_2/0_Rucina_0_416_0_2_2

New Line.l(r:p1ulv13383-udm8611) Units=km Length=0.036553 bus1=udm8611.1.2 bus2=p1ulv13383.1.2 switch=n enabled=y phases=2 Linecode=1P_OH_AL_4/0_Zuzara_0_416_0_2_2

New Line.l(r:p1ulv14762-udm8611) Units=km Length=0.0311042 bus1=udm8611.1.2 bus2=p1ulv14762.1.2 switch=n enabled=y phases=2 Linecode=1P_OH_AL_4/0_Zuzara_0_416_0_2_2

New Line.l(r:p1ulv18373-udm8611) Units=km Length=0.013941100000000001 bus1=udm8611.1.2 bus2=p1ulv18373.1.2 switch=n enabled=y phases=2 Linecode=1P_OH_AL_2/0_Rucina_0_416_0_2_2

New Line.l(r:udm8611-udt2140lv) Units=km Length=0.0191971 bus1=udt2140lv.1.2 bus2=udm8611.1.2 switch=n enabled=y phases=2 Linecode=1P_OH_AL_2/0_Rucina_0_416_0_2_2

New Line.l(r:p1ulv4764-udt2141lv) Units=km Length=0.0109595 bus1=udt2141lv.1.2 bus2=p1ulv4764.1.2 switch=n enabled=y phases=2 Linecode=1P_OH_AL_2/0_Rucina_0_416_0_2_2

New Line.l(r:p1ulv18722-udt2141lv) Units=km Length=0.017078 bus1=udt2141lv.1.2 bus2=p1ulv18722.1.2 switch=n enabled=y phases=2 Linecode=1P_OH_AL_2/0_Rucina_0_416_0_2_2

New Line.l(r:p1ulv15419-udm8622) Units=km Length=0.0198368 bus1=udm8622.1.2 bus2=p1ulv15419.1.2 switch=n enabled=y phases=2 Linecode=1P_OH_AL_2/0_Rucina_0_416_0_2_2

New Line.l(r:p1ulv18846-udm8622) Units=km Length=0.0139077 bus1=udm8622.1.2 bus2=p1ulv18846.1.2 switch=n enabled=y phases=2 Linecode=1P_OH_AL_2/0_Rucina_0_416_0_2_2

New Line.l(r:p1ulv35825-udm8627) Units=km Length=0.0133261 bus1=udm8627.1.2 bus2=p1ulv35825.1.2 switch=n enabled=y phases=2 Linecode=1P_OH_AL_2/0_Rucina_0_416_0_2_2

New Line.l(r:udm8622-udm8627) Units=km Length=0.0176934 bus1=udm8622.1.2 bus2=udm8627.1.2 switch=n enabled=y phases=2 Linecode=1P_OH_AL_2/0_Rucina_0_416_0_2_2

New Line.l(r:udm8622-udt2141lv) Units=km Length=0.0195666 bus1=udt2141lv.1.2 bus2=udm8622.1.2 switch=n enabled=y phases=2 Linecode=1P_OH_AL_2/0_Rucina_0_416_0_2_2

New Line.l(r:p1ulv16775-udm8623) Units=km Length=0.0158854 bus1=udm8623.1.2 bus2=p1ulv16775.1.2 switch=n enabled=y phases=2 Linecode=1P_OH_AL_2/0_Rucina_0_416_0_2_2

New Line.l(r:p1ulv24962-udm8623) Units=km Length=0.013633200000000002 bus1=udm8623.1.2 bus2=p1ulv24962.1.2 switch=n enabled=y phases=2 Linecode=1P_OH_AL_2/0_Rucina_0_416_0_2_2

New Line.l(r:udm8623-udt2141lv) Units=km Length=0.0195661 bus1=udt2141lv.1.2 bus2=udm8623.1.2 switch=n enabled=y phases=2 Linecode=1P_OH_AL_2/0_Rucina_0_416_0_2_2

New Line.l(r:p1ulv23852-udt2142lv) Units=km Length=0.013753500000000002 bus1=udt2142lv.1.2 bus2=p1ulv23852.1.2 switch=n enabled=y phases=2 Linecode=1P_UG_AL_1/0_Brenau_0_416_0_2_2

New Line.l(r:p1ulv32572-udt2142lv) Units=km Length=0.0104229 bus1=udt2142lv.1.2 bus2=p1ulv32572.1.2 switch=n enabled=y phases=2 Linecode=1P_UG_AL_1/0_Brenau_0_416_0_2_2

New Line.l(r:p1ulv20377-udm8632) Units=km Length=0.0122535 bus1=udm8632.1.2 bus2=p1ulv20377.1.2 switch=n enabled=y phases=2 Linecode=1P_UG_AL_1/0_Brenau_0_416_0_2_2

New Line.l(r:p1ulv31073-udm8632) Units=km Length=0.0110771 bus1=udm8632.1.2 bus2=p1ulv31073.1.2 switch=n enabled=y phases=2 Linecode=1P_UG_AL_1/0_Brenau_0_416_0_2_2

New Line.l(r:p1ulv15058-udm8629) Units=km Length=0.0120342 bus1=udm8629.1.2 bus2=p1ulv15058.1.2 switch=n enabled=y phases=2 Linecode=1P_OH_AL_2/0_Rucina_0_416_0_2_2

New Line.l(r:udm8629-udm8632) Units=km Length=0.0884765 bus1=udm8632.1.2 bus2=udm8629.1.2 switch=n enabled=y phases=2 Linecode=1P_OH_AL_4/0_Zuzara_0_416_0_2_2

New Line.l(r:udm8632-udt2142lv) Units=km Length=0.0197054 bus1=udt2142lv.1.2 bus2=udm8632.1.2 switch=n enabled=y phases=2 Linecode=1P_UG_AL_1/0_Brenau_0_416_0_2_2

New Line.l(r:p1ulv35958-udm8637) Units=km Length=0.0104259 bus1=udm8637.1.2 bus2=p1ulv35958.1.2 switch=n enabled=y phases=2 Linecode=1P_UG_AL_1/0_Brenau_0_416_0_2_2

New Line.l(r:p1ulv15348-udm8630) Units=km Length=0.0123983 bus1=udm8630.1.2 bus2=p1ulv15348.1.2 switch=n enabled=y phases=2 Linecode=1P_UG_AL_1/0_Brenau_0_416_0_2_2

New Line.l(r:p1ulv4765-udm8628) Units=km Length=0.00999512 bus1=udm8628.1.2 bus2=p1ulv4765.1.2 switch=n enabled=y phases=2 Linecode=1P_UG_AL_1/0_Brenau_0_416_0_2_2

New Line.l(r:p1ulv20258-udm8628) Units=km Length=0.0124203 bus1=udm8628.1.2 bus2=p1ulv20258.1.2 switch=n enabled=y phases=2 Linecode=1P_UG_AL_1/0_Brenau_0_416_0_2_2

New Line.l(r:p1ulv23199-udm8633) Units=km Length=0.0396868 bus1=udm8633.1.2 bus2=p1ulv23199.1.2 switch=n enabled=y phases=2 Linecode=1P_UG_AL_1/0_Brenau_0_416_0_2_2

New Line.l(r:udm8628-udm8633) Units=km Length=0.0197049 bus1=udm8628.1.2 bus2=udm8633.1.2 switch=n enabled=y phases=2 Linecode=1P_UG_AL_1/0_Brenau_0_416_0_2_2

New Line.l(r:udm8628-udm8630) Units=km Length=0.0098527 bus1=udm8630.1.2 bus2=udm8628.1.2 switch=n enabled=y phases=2 Linecode=1P_UG_AL_2/0_Converse_0_416_0_2_2

New Line.l(r:udm8630-udm8637) Units=km Length=0.00984271 bus1=udm8637.1.2 bus2=udm8630.1.2 switch=n enabled=y phases=2 Linecode=1P_UG_AL_4/0_Sweetbriar_0_416_0_2_2

New Line.l(r:udm8637-udt2142lv) Units=km Length=0.00985219 bus1=udt2142lv.1.2 bus2=udm8637.1.2 switch=n enabled=y phases=2 Linecode=1P_UG_AL_4/0_Sweetbriar_0_416_0_2_2

New Line.l(r:p1ulv23157-udt2143lv) Units=km Length=0.00947426 bus1=udt2143lv.1.2 bus2=p1ulv23157.1.2 switch=n enabled=y phases=2 Linecode=1P_OH_AL_2/0_Rucina_0_416_0_2_2

New Line.l(r:p1ulv25458-udt2143lv) Units=km Length=0.011698600000000002 bus1=udt2143lv.1.2 bus2=p1ulv25458.1.2 switch=n enabled=y phases=2 Linecode=1P_OH_AL_2/0_Rucina_0_416_0_2_2

New Line.l(r:p1ulv13087-udm8639) Units=km Length=0.0100629 bus1=udm8639.1.2 bus2=p1ulv13087.1.2 switch=n enabled=y phases=2 Linecode=1P_OH_AL_2/0_Rucina_0_416_0_2_2

New Line.l(r:p1ulv19125-udm8639) Units=km Length=0.0122824 bus1=udm8639.1.2 bus2=p1ulv19125.1.2 switch=n enabled=y phases=2 Linecode=1P_OH_AL_2/0_Rucina_0_416_0_2_2

New Line.l(r:p1ulv4766-udm8638) Units=km Length=0.0137088 bus1=udm8638.1.2 bus2=p1ulv4766.1.2 switch=n enabled=y phases=2 Linecode=1P_OH_AL_2/0_Rucina_0_416_0_2_2

New Line.l(r:p1ulv32710-udm8638) Units=km Length=0.0107768 bus1=udm8638.1.2 bus2=p1ulv32710.1.2 switch=n enabled=y phases=2 Linecode=1P_OH_AL_2/0_Rucina_0_416_0_2_2

New Line.l(r:udm8638-udm8639) Units=km Length=0.0196403 bus1=udm8639.1.2 bus2=udm8638.1.2 switch=n enabled=y phases=2 Linecode=1P_OH_AL_2/0_Rucina_0_416_0_2_2

New Line.l(r:udm8639-udt2143lv) Units=km Length=0.0196408 bus1=udt2143lv.1.2 bus2=udm8639.1.2 switch=n enabled=y phases=2 Linecode=1P_OH_AL_2/0_Rucina_0_416_0_2_2

New Line.l(r:p1ulv20614-udm8643) Units=km Length=0.0127062 bus1=udm8643.1.2 bus2=p1ulv20614.1.2 switch=n enabled=y phases=2 Linecode=1P_OH_AL_2/0_Rucina_0_416_0_2_2

New Line.l(r:p1ulv18183-udm8641) Units=km Length=0.00994449 bus1=udm8641.1.2 bus2=p1ulv18183.1.2 switch=n enabled=y phases=2 Linecode=1P_OH_AL_2/0_Rucina_0_416_0_2_2

New Line.l(r:p1ulv21582-udm8641) Units=km Length=0.010304800000000001 bus1=udm8641.1.2 bus2=p1ulv21582.1.2 switch=n enabled=y phases=2 Linecode=1P_OH_AL_2/0_Rucina_0_416_0_2_2

New Line.l(r:p1ulv15706-udm8640) Units=km Length=0.0116225 bus1=udm8640.1.2 bus2=p1ulv15706.1.2 switch=n enabled=y phases=2 Linecode=1P_OH_AL_2/0_Rucina_0_416_0_2_2

New Line.l(r:udm8640-udm8641) Units=km Length=0.0196403 bus1=udm8641.1.2 bus2=udm8640.1.2 switch=n enabled=y phases=2 Linecode=1P_OH_AL_2/0_Rucina_0_416_0_2_2

New Line.l(r:udm8641-udm8643) Units=km Length=0.0196408 bus1=udm8643.1.2 bus2=udm8641.1.2 switch=n enabled=y phases=2 Linecode=1P_OH_AL_2/0_Rucina_0_416_0_2_2

New Line.l(r:udm8643-udt2143lv) Units=km Length=0.0196503 bus1=udt2143lv.1.2 bus2=udm8643.1.2 switch=n enabled=y phases=2 Linecode=1P_OH_AL_2/0_Rucina_0_416_0_2_2

New Line.l(r:p1ulv5918-udm10749) Units=km Length=0.00982467 bus1=udm10749.1.2 bus2=p1ulv5918.1.2 switch=n enabled=y phases=2 Linecode=1P_UG_AL_1/0_Brenau_0_416_0_2_2

New Line.l(r:p1ulv28747-udm10749) Units=km Length=0.0111301 bus1=udm10749.1.2 bus2=p1ulv28747.1.2 switch=n enabled=y phases=2 Linecode=1P_UG_AL_1/0_Brenau_0_416_0_2_2

New Line.l(r:udm10749-udt2711lv) Units=km Length=0.0099433 bus1=udt2711lv.1.2 bus2=udm10749.1.2 switch=n enabled=y phases=2 Linecode=1P_UG_AL_1/0_Brenau_0_416_0_2_2

New Line.l(r:p1ulv47414-udm10751) Units=km Length=0.0170469 bus1=udm10751.1.2 bus2=p1ulv47414.1.2 switch=n enabled=y phases=2 Linecode=1P_UG_AL_1/0_Brenau_0_416_0_2_2

New Line.l(r:udm10751-udt2711lv) Units=km Length=0.0198757 bus1=udt2711lv.1.2 bus2=udm10751.1.2 switch=n enabled=y phases=2 Linecode=1P_UG_AL_1/0_Brenau_0_416_0_2_2

New Line.l(r:p1ulv5920-udt2712lv) Units=km Length=0.023905800000000005 bus1=udt2712lv.1.2 bus2=p1ulv5920.1.2 switch=n enabled=y phases=2 Linecode=1P_OH_AL_2/0_Rucina_0_416_0_2_2

New Line.l(r:p1ulv5923-udm10753) Units=km Length=0.0235604 bus1=udm10753.1.2 bus2=p1ulv5923.1.2 switch=n enabled=y phases=2 Linecode=1P_OH_AL_2/0_Rucina_0_416_0_2_2

New Line.l(r:p1ulv38384-udm10755) Units=km Length=0.0232718 bus1=udm10755.1.2 bus2=p1ulv38384.1.2 switch=n enabled=y phases=2 Linecode=1P_OH_AL_2/0_Rucina_0_416_0_2_2

New Line.l(r:udm10753-udm10755) Units=km Length=0.0187089 bus1=udm10753.1.2 bus2=udm10755.1.2 switch=n enabled=y phases=2 Linecode=1P_OH_AL_2/0_Rucina_0_416_0_2_2

New Line.l(r:udm10753-udt2712lv) Units=km Length=0.0187032 bus1=udt2712lv.1.2 bus2=udm10753.1.2 switch=n enabled=y phases=2 Linecode=1P_OH_AL_2/0_Rucina_0_416_0_2_2

New Line.l(r:p1ulv31198-udm10754) Units=km Length=0.0236223 bus1=udm10754.1.2 bus2=p1ulv31198.1.2 switch=n enabled=y phases=2 Linecode=1P_OH_AL_2/0_Rucina_0_416_0_2_2

New Line.l(r:udm10754-udt2712lv) Units=km Length=0.018695 bus1=udt2712lv.1.2 bus2=udm10754.1.2 switch=n enabled=y phases=2 Linecode=1P_OH_AL_2/0_Rucina_0_416_0_2_2

New Line.l(r:p1ulv27743-udt2713lv) Units=km Length=0.019361 bus1=udt2713lv.1.2 bus2=p1ulv27743.1.2 switch=n enabled=y phases=2 Linecode=1P_UG_AL_1/0_Brenau_0_416_0_2_2

New Line.l(r:p1ulv34962-udt2713lv) Units=km Length=0.013574500000000001 bus1=udt2713lv.1.2 bus2=p1ulv34962.1.2 switch=n enabled=y phases=2 Linecode=1P_UG_AL_1/0_Brenau_0_416_0_2_2

New Line.l(r:p1ulv45949-udt2713lv) Units=km Length=0.019712 bus1=udt2713lv.1.2 bus2=p1ulv45949.1.2 switch=n enabled=y phases=2 Linecode=1P_UG_AL_1/0_Brenau_0_416_0_2_2

New Line.l(r:p1ulv30711-udm10758) Units=km Length=0.0362508 bus1=udm10758.1.2 bus2=p1ulv30711.1.2 switch=n enabled=y phases=2 Linecode=1P_UG_AL_1/0_Brenau_0_416_0_2_2

New Line.l(r:p1ulv5921-udm10756) Units=km Length=0.0187193 bus1=udm10756.1.2 bus2=p1ulv5921.1.2 switch=n enabled=y phases=2 Linecode=1P_UG_AL_1/0_Brenau_0_416_0_2_2

New Line.l(r:p1ulv32091-udm10756) Units=km Length=0.0120782 bus1=udm10756.1.2 bus2=p1ulv32091.1.2 switch=n enabled=y phases=2 Linecode=1P_UG_AL_1/0_Brenau_0_416_0_2_2

New Line.l(r:p1ulv39261-udm10761) Units=km Length=0.0135964 bus1=udm10761.1.2 bus2=p1ulv39261.1.2 switch=n enabled=y phases=2 Linecode=1P_UG_AL_1/0_Brenau_0_416_0_2_2

New Line.l(r:udm10756-udm10761) Units=km Length=0.00993469 bus1=udm10756.1.2 bus2=udm10761.1.2 switch=n enabled=y phases=2 Linecode=1P_UG_AL_1/0_Brenau_0_416_0_2_2
