New Line.l(r:p1ulv3506-udm6541) Units=km Length=0.0141748 bus1=udm6541.1.2 bus2=p1ulv3506.1.2 switch=n enabled=y phases=2 Linecode=1P_UG_AL_2/0_Converse_0_416_0_2_2

New Line.l(r:udm6541-udt1633lv) Units=km Length=0.00999442 bus1=udt1633lv.1.2 bus2=udm6541.1.2 switch=n enabled=y phases=2 Linecode=1P_UG_AL_2/0_Converse_0_416_0_2_2

New Line.l(r:p1ulv21910-udm6542) Units=km Length=0.00760253 bus1=udm6542.1.2 bus2=p1ulv21910.1.2 switch=n enabled=y phases=2 Linecode=1P_UG_AL_4/0_Sweetbriar_0_416_0_2_2

New Line.l(r:udm6542-udt1633lv) Units=km Length=0.00998203 bus1=udt1633lv.1.2 bus2=udm6542.1.2 switch=n enabled=y phases=2 Linecode=1P_UG_AL_4/0_Sweetbriar_0_416_0_2_2

New Line.l(r:p1ulv17976-udt1635lv) Units=km Length=0.0126705 bus1=udt1635lv.1.2 bus2=p1ulv17976.1.2 switch=n enabled=y phases=2 Linecode=1P_UG_AL_1/0_Brenau_0_416_0_2_2

New Line.l(r:p1ulv3508-udm6544) Units=km Length=0.0434448 bus1=udm6544.1.2 bus2=p1ulv3508.1.2 switch=n enabled=y phases=2 Linecode=1P_UG_AL_2/0_Converse_0_416_0_2_2

New Line.l(r:udm6544-udt1635lv) Units=km Length=0.013674400000000001 bus1=udt1635lv.1.2 bus2=udm6544.1.2 switch=n enabled=y phases=2 Linecode=1P_UG_AL_2/0_Converse_0_416_0_2_2

New Line.l(r:p1ulv17975-udm6546) Units=km Length=0.0131543 bus1=udm6546.1.2 bus2=p1ulv17975.1.2 switch=n enabled=y phases=2 Linecode=1P_UG_AL_1/0_Brenau_0_416_0_2_2

New Line.l(r:p1ulv22130-udm6546) Units=km Length=0.00325301 bus1=udm6546.1.2 bus2=p1ulv22130.1.2 switch=n enabled=y phases=2 Linecode=1P_UG_AL_4/0_Sweetbriar_0_416_0_2_2

New Line.l(r:p1ulv17974-udm6545) Units=km Length=0.0140149 bus1=udm6545.1.2 bus2=p1ulv17974.1.2 switch=n enabled=y phases=2 Linecode=1P_UG_AL_1/0_Brenau_0_416_0_2_2

New Line.l(r:udm6545-udm6546) Units=km Length=0.009812980000000002 bus1=udm6546.1.2 bus2=udm6545.1.2 switch=n enabled=y phases=2 Linecode=1P_UG_AL_1/0_Brenau_0_416_0_2_2

New Line.l(r:udm6546-udt1635lv) Units=km Length=0.009812980000000002 bus1=udt1635lv.1.2 bus2=udm6546.1.2 switch=n enabled=y phases=2 Linecode=1P_UG_AL_4/0_Sweetbriar_0_416_0_2_2

New Line.l(r:p1ulv3510-udt1637lv) Units=km Length=0.0116625 bus1=udt1637lv.1.2 bus2=p1ulv3510.1.2 switch=n enabled=y phases=2 Linecode=1P_UG_AL_1/0_Brenau_0_416_0_2_2

New Line.l(r:p1ulv13413-udt1642lv) Units=km Length=0.014405200000000002 bus1=udt1642lv.1.2 bus2=p1ulv13413.1.2 switch=n enabled=y phases=2 Linecode=1P_UG_AL_1/0_Brenau_0_416_0_2_2

New Line.l(r:p1ulv18526-udt1642lv) Units=km Length=0.0122326 bus1=udt1642lv.1.2 bus2=p1ulv18526.1.2 switch=n enabled=y phases=2 Linecode=1P_UG_AL_1/0_Brenau_0_416_0_2_2

New Line.l(r:p1ulv3515-udm6560) Units=km Length=0.0125654 bus1=udm6560.1.2 bus2=p1ulv3515.1.2 switch=n enabled=y phases=2 Linecode=1P_UG_AL_1/0_Brenau_0_416_0_2_2

New Line.l(r:p1ulv25165-udm6560) Units=km Length=0.0129431 bus1=udm6560.1.2 bus2=p1ulv25165.1.2 switch=n enabled=y phases=2 Linecode=1P_UG_AL_1/0_Brenau_0_416_0_2_2

New Line.l(r:udm6560-udt1642lv) Units=km Length=0.008560050000000001 bus1=udt1642lv.1.2 bus2=udm6560.1.2 switch=n enabled=y phases=2 Linecode=1P_UG_AL_4/0_Sweetbriar_0_416_0_2_2

New Line.l(r:p1ulv3516-udt1643lv) Units=km Length=0.0119663 bus1=udt1643lv.1.2 bus2=p1ulv3516.1.2 switch=n enabled=y phases=2 Linecode=1P_UG_AL_1/0_Brenau_0_416_0_2_2

New Line.l(r:p1ulv6269-udt1643lv) Units=km Length=0.0422389 bus1=udt1643lv.1.2 bus2=p1ulv6269.1.2 switch=n enabled=y phases=2 Linecode=1P_UG_AL_1/0_Brenau_0_416_0_2_2

New Line.l(r:p1ulv6271-udt1643lv) Units=km Length=0.0626953 bus1=udt1643lv.1.2 bus2=p1ulv6271.1.2 switch=n enabled=y phases=2 Linecode=1P_UG_AL_1/0_Brenau_0_416_0_2_2

New Line.l(r:p1ulv6272-udt1643lv) Units=km Length=0.0549883 bus1=udt1643lv.1.2 bus2=p1ulv6272.1.2 switch=n enabled=y phases=2 Linecode=1P_UG_AL_1/0_Brenau_0_416_0_2_2

New Line.l(r:p1ulv6273-udt1643lv) Units=km Length=0.0465952 bus1=udt1643lv.1.2 bus2=p1ulv6273.1.2 switch=n enabled=y phases=2 Linecode=1P_UG_AL_1/0_Brenau_0_416_0_2_2

New Line.l(r:p1ulv6270-udm6566) Units=km Length=0.0709578 bus1=udm6566.1.2 bus2=p1ulv6270.1.2 switch=n enabled=y phases=2 Linecode=1P_UG_AL_1/0_Brenau_0_416_0_2_2

New Line.l(r:udm6566-udt1643lv) Units=km Length=0.00857351 bus1=udt1643lv.1.2 bus2=udm6566.1.2 switch=n enabled=y phases=2 Linecode=1P_UG_AL_1/0_Brenau_0_416_0_2_2

New Line.l(r:p1ulv3518-udt1644lv) Units=km Length=0.0798893 bus1=udt1644lv.1.2 bus2=p1ulv3518.1.2 switch=n enabled=y phases=2 Linecode=1P_UG_AL_2/0_Converse_0_416_0_2_2

New Line.l(r:p1ulv6251-udt2845lv) Units=km Length=0.0266327 bus1=udt2845lv.1.2 bus2=p1ulv6251.1.2 switch=n enabled=y phases=2 Linecode=1P_UG_AL_1/0_Brenau_0_416_0_2_2

New Line.l(r:p1ulv6252-udt2845lv) Units=km Length=0.0203724 bus1=udt2845lv.1.2 bus2=p1ulv6252.1.2 switch=n enabled=y phases=2 Linecode=1P_UG_AL_1/0_Brenau_0_416_0_2_2

New Line.l(r:p1ulv6250-udm11386) Units=km Length=0.0322403 bus1=udm11386.1.2 bus2=p1ulv6250.1.2 switch=n enabled=y phases=2 Linecode=1P_UG_AL_1/0_Brenau_0_416_0_2_2

New Line.l(r:udm11386-udt2845lv) Units=km Length=0.00967478 bus1=udt2845lv.1.2 bus2=udm11386.1.2 switch=n enabled=y phases=2 Linecode=1P_UG_AL_1/0_Brenau_0_416_0_2_2

New Line.l(r:p1ulv6253-udm11389) Units=km Length=0.015184300000000001 bus1=udm11389.1.2 bus2=p1ulv6253.1.2 switch=n enabled=y phases=2 Linecode=1P_UG_AL_1/0_Brenau_0_416_0_2_2

New Line.l(r:p1ulv6254-udm11389) Units=km Length=0.0571967 bus1=udm11389.1.2 bus2=p1ulv6254.1.2 switch=n enabled=y phases=2 Linecode=1P_UG_AL_1/0_Brenau_0_416_0_2_2

New Line.l(r:p1ulv6255-udm11389) Units=km Length=0.0649963 bus1=udm11389.1.2 bus2=p1ulv6255.1.2 switch=n enabled=y phases=2 Linecode=1P_UG_AL_1/0_Brenau_0_416_0_2_2

New Line.l(r:p1ulv6256-udm11389) Units=km Length=0.0802381 bus1=udm11389.1.2 bus2=p1ulv6256.1.2 switch=n enabled=y phases=2 Linecode=1P_UG_AL_1/0_Brenau_0_416_0_2_2

New Line.l(r:udm11389-udt2845lv) Units=km Length=0.00968203 bus1=udt2845lv.1.2 bus2=udm11389.1.2 switch=n enabled=y phases=2 Linecode=1P_UG_AL_4/0_Sweetbriar_0_416_0_2_2

New Line.l(r:p1ulv6261-udt2846lv) Units=km Length=0.08588590000000002 bus1=udt2846lv.1.2 bus2=p1ulv6261.1.2 switch=n enabled=y phases=2 Linecode=1P_UG_AL_1/0_Brenau_0_416_0_2_2

New Line.l(r:p1ulv6263-udt2846lv) Units=km Length=0.0575629 bus1=udt2846lv.1.2 bus2=p1ulv6263.1.2 switch=n enabled=y phases=2 Linecode=1P_UG_AL_1/0_Brenau_0_416_0_2_2

New Line.l(r:p1ulv6264-udt2846lv) Units=km Length=0.0148018 bus1=udt2846lv.1.2 bus2=p1ulv6264.1.2 switch=n enabled=y phases=2 Linecode=1P_UG_AL_1/0_Brenau_0_416_0_2_2

New Line.l(r:p1ulv6260-udm11396) Units=km Length=0.0836977 bus1=udm11396.1.2 bus2=p1ulv6260.1.2 switch=n enabled=y phases=2 Linecode=1P_UG_AL_1/0_Brenau_0_416_0_2_2

New Line.l(r:p1ulv6265-udm11396) Units=km Length=0.0169037 bus1=udm11396.1.2 bus2=p1ulv6265.1.2 switch=n enabled=y phases=2 Linecode=1P_UG_AL_1/0_Brenau_0_416_0_2_2

New Line.l(r:p1ulv6266-udm11396) Units=km Length=0.0182343 bus1=udm11396.1.2 bus2=p1ulv6266.1.2 switch=n enabled=y phases=2 Linecode=1P_UG_AL_1/0_Brenau_0_416_0_2_2

New Line.l(r:p1ulv6267-udm11403) Units=km Length=0.0197085 bus1=udm11403.1.2 bus2=p1ulv6267.1.2 switch=n enabled=y phases=2 Linecode=1P_UG_AL_1/0_Brenau_0_416_0_2_2

New Line.l(r:p1ulv6268-udm11404) Units=km Length=0.03574050000000001 bus1=udm11404.1.2 bus2=p1ulv6268.1.2 switch=n enabled=y phases=2 Linecode=1P_UG_AL_1/0_Brenau_0_416_0_2_2

New Line.l(r:udm11403-udm11404) Units=km Length=0.0193568 bus1=udm11403.1.2 bus2=udm11404.1.2 switch=n enabled=y phases=2 Linecode=1P_UG_AL_1/0_Brenau_0_416_0_2_2

New Line.l(r:udm11396-udm11403) Units=km Length=0.00967478 bus1=udm11396.1.2 bus2=udm11403.1.2 switch=n enabled=y phases=2 Linecode=1P_UG_AL_1/0_Brenau_0_416_0_2_2

New Line.l(r:udm11396-udt2846lv) Units=km Length=0.00968447 bus1=udt2846lv.1.2 bus2=udm11396.1.2 switch=n enabled=y phases=2 Linecode=1P_UG_AL_4/0_Sweetbriar_0_416_0_2_2

New Line.l(r:p1ulv6262-udm11398) Units=km Length=0.0502254 bus1=udm11398.1.2 bus2=p1ulv6262.1.2 switch=n enabled=y phases=2 Linecode=1P_UG_AL_1/0_Brenau_0_416_0_2_2

New Line.l(r:p1ulv6259-udm11395) Units=km Length=0.0918065 bus1=udm11395.1.2 bus2=p1ulv6259.1.2 switch=n enabled=y phases=2 Linecode=1P_UG_AL_1/0_Brenau_0_416_0_2_2

New Line.l(r:p1ulv6257-udm11393) Units=km Length=0.0842406 bus1=udm11393.1.2 bus2=p1ulv6257.1.2 switch=n enabled=y phases=2 Linecode=1P_UG_AL_1/0_Brenau_0_416_0_2_2

New Line.l(r:p1ulv6258-udm11393) Units=km Length=0.0880271 bus1=udm11393.1.2 bus2=p1ulv6258.1.2 switch=n enabled=y phases=2 Linecode=1P_UG_AL_1/0_Brenau_0_416_0_2_2

New Line.l(r:udm11393-udm11395) Units=km Length=0.00967478 bus1=udm11395.1.2 bus2=udm11393.1.2 switch=n enabled=y phases=2 Linecode=1P_UG_AL_1/0_Brenau_0_416_0_2_2

New Line.l(r:udm11395-udm11398) Units=km Length=0.00968447 bus1=udm11398.1.2 bus2=udm11395.1.2 switch=n enabled=y phases=2 Linecode=1P_UG_AL_2/0_Converse_0_416_0_2_2

New Line.l(r:udm11398-udt2846lv) Units=km Length=0.009672330000000002 bus1=udt2846lv.1.2 bus2=udm11398.1.2 switch=n enabled=y phases=2 Linecode=1P_UG_AL_4/0_Sweetbriar_0_416_0_2_2

New Line.l(r:p1ulv11950-udt5419lv) Units=km Length=0.0188446 bus1=udt5419lv.1.2 bus2=p1ulv11950.1.2 switch=n enabled=y phases=2 Linecode=1P_UG_AL_1/0_Brenau_0_416_0_2_2

New Line.l(r:p1ulv31009-udm20368) Units=km Length=0.0196691 bus1=udm20368.1.2 bus2=p1ulv31009.1.2 switch=n enabled=y phases=2 Linecode=1P_UG_AL_1/0_Brenau_0_416_0_2_2

New Line.l(r:udm20368-udt5419lv) Units=km Length=0.00978146 bus1=udt5419lv.1.2 bus2=udm20368.1.2 switch=n enabled=y phases=2 Linecode=1P_UG_AL_1/0_Brenau_0_416_0_2_2

New Line.l(r:p1ulv11951-udm20369) Units=km Length=0.0152502 bus1=udm20369.1.2 bus2=p1ulv11951.1.2 switch=n enabled=y phases=2 Linecode=1P_UG_AL_1/0_Brenau_0_416_0_2_2

New Line.l(r:p1ulv34159-udm20371) Units=km Length=0.0198249 bus1=udm20371.1.2 bus2=p1ulv34159.1.2 switch=n enabled=y phases=2 Linecode=1P_UG_AL_1/0_Brenau_0_416_0_2_2

New Line.l(r:udm20369-udm20371) Units=km Length=0.0293224 bus1=udm20369.1.2 bus2=udm20371.1.2 switch=n enabled=y phases=2 Linecode=1P_UG_AL_1/0_Brenau_0_416_0_2_2

New Line.l(r:udm20369-udt5420lv) Units=km Length=0.00978146 bus1=udt5420lv.1.2 bus2=udm20369.1.2 switch=n enabled=y phases=2 Linecode=1P_UG_AL_1/0_Brenau_0_416_0_2_2

New Line.l(r:p1ulv11952-udm20370) Units=km Length=0.0198022 bus1=udm20370.1.2 bus2=p1ulv11952.1.2 switch=n enabled=y phases=2 Linecode=1P_UG_AL_1/0_Brenau_0_416_0_2_2

New Line.l(r:udm20370-udt5420lv) Units=km Length=0.0293251 bus1=udt5420lv.1.2 bus2=udm20370.1.2 switch=n enabled=y phases=2 Linecode=1P_UG_AL_1/0_Brenau_0_416_0_2_2

New Line.l(r:p1ulv11958-udt5426lv) Units=km Length=0.11209700000000002 bus1=udt5426lv.1.2 bus2=p1ulv11958.1.2 switch=n enabled=y phases=2 Linecode=1P_UG_AL_1/0_Brenau_0_416_0_2_2

New Line.l(r:p1ulv17991-udt5426lv) Units=km Length=0.0103012 bus1=udt5426lv.1.2 bus2=p1ulv17991.1.2 switch=n enabled=y phases=2 Linecode=1P_UG_AL_1/0_Brenau_0_416_0_2_2

New Line.l(r:p1ulv17993-udt5426lv) Units=km Length=0.0116341 bus1=udt5426lv.1.2 bus2=p1ulv17993.1.2 switch=n enabled=y phases=2 Linecode=1P_UG_AL_1/0_Brenau_0_416_0_2_2

New Line.l(r:p1ulv13040-udt5898lv) Units=km Length=0.00511035 bus1=udt5898lv.1.2 bus2=p1ulv13040.1.2 switch=n enabled=y phases=2 Linecode=1P_OH_AL_2/0_Rucina_0_416_0_2_2

New Line.l(r:p1ulv13849-udm24304) Units=km Length=0.00890201 bus1=udm24304.1.2 bus2=p1ulv13849.1.2 switch=n enabled=y phases=2 Linecode=1P_UG_AL_1/0_Brenau_0_416_0_2_2

New Line.l(r:udm24304-udt6502lv) Units=km Length=0.007764 bus1=udt6502lv.1.2 bus2=udm24304.1.2 switch=n enabled=y phases=2 Linecode=1P_UG_AL_1/0_Brenau_0_416_0_2_2

New Line.l(r:p1ulv20331-udm24305) Units=km Length=0.00837259 bus1=udm24305.1.2 bus2=p1ulv20331.1.2 switch=n enabled=y phases=2 Linecode=1P_UG_AL_1/0_Brenau_0_416_0_2_2

New Line.l(r:udm24305-udt6502lv) Units=km Length=0.0172181 bus1=udt6502lv.1.2 bus2=udm24305.1.2 switch=n enabled=y phases=2 Linecode=1P_UG_AL_1/0_Brenau_0_416_0_2_2

New Line.l(r:p1ulv13931-udm24506) Units=km Length=0.0392955 bus1=udm24506.1.2 bus2=p1ulv13931.1.2 switch=n enabled=y phases=2 Linecode=1P_UG_AL_1/0_Brenau_0_416_0_2_2

New Line.l(r:p1ulv24006-udm24506) Units=km Length=0.0554879 bus1=udm24506.1.2 bus2=p1ulv24006.1.2 switch=n enabled=y phases=2 Linecode=1P_UG_AL_1/0_Brenau_0_416_0_2_2

New Line.l(r:udm24506-udt6564lv) Units=km Length=0.0182665 bus1=udt6564lv.1.2 bus2=udm24506.1.2 switch=n enabled=y phases=2 Linecode=1P_OH_AL_2/0_Rucina_0_416_0_2_2

New Line.l(r:p1ulv29267-udm24508) Units=km Length=0.0227451 bus1=udm24508.1.2 bus2=p1ulv29267.1.2 switch=n enabled=y phases=2 Linecode=1P_OH_AL_2/0_Rucina_0_416_0_2_2

New Line.l(r:udm24508-udt6564lv) Units=km Length=0.036533 bus1=udt6564lv.1.2 bus2=udm24508.1.2 switch=n enabled=y phases=2 Linecode=1P_OH_AL_4/0_Zuzara_0_416_0_2_2

New Line.l(r:p1ulv14085-udt6668lv) Units=km Length=0.00563847 bus1=udt6668lv.1.2 bus2=p1ulv14085.1.2 switch=n enabled=y phases=2 Linecode=1P_OH_AL_2/0_Rucina_0_416_0_2_2

New Line.l(r:p1ulv14661-udt6972lv) Units=km Length=0.0154726 bus1=udt6972lv.1.2 bus2=p1ulv14661.1.2 switch=n enabled=y phases=2 Linecode=1P_UG_AL_4/0_Sweetbriar_0_416_0_2_2

New Line.l(r:p1ulv14678-udt6980lv) Units=km Length=0.001 bus1=udt6980lv.1.2 bus2=p1ulv14678.1.2 switch=n enabled=y phases=2 Linecode=1P_OH_AL_4_Periwinkle_0_416_0_2_2

New Line.l(r:p1ulv14787-udm26211) Units=km Length=0.019688000000000004 bus1=udm26211.1.2 bus2=p1ulv14787.1.2 switch=n enabled=y phases=2 Linecode=1P_UG_AL_1/0_Brenau_0_416_0_2_2

New Line.l(r:p1ulv25678-udm26211) Units=km Length=0.025052 bus1=udm26211.1.2 bus2=p1ulv25678.1.2 switch=n enabled=y phases=2 Linecode=1P_UG_AL_1/0_Brenau_0_416_0_2_2

New Line.l(r:udm26211-udt7042lv) Units=km Length=0.019550600000000005 bus1=udt7042lv.1.2 bus2=udm26211.1.2 switch=n enabled=y phases=2 Linecode=1P_UG_AL_2/0_Converse_0_416_0_2_2

New Line.l(r:p1ulv32418-udm26213) Units=km Length=0.0277444 bus1=udm26213.1.2 bus2=p1ulv32418.1.2 switch=n enabled=y phases=2 Linecode=1P_UG_AL_1/0_Brenau_0_416_0_2_2

New Line.l(r:udm26213-udt7042lv) Units=km Length=0.0391066 bus1=udt7042lv.1.2 bus2=udm26213.1.2 switch=n enabled=y phases=2 Linecode=1P_UG_AL_1/0_Brenau_0_416_0_2_2

New Line.l(r:p1ulv18048-udt7272lv) Units=km Length=0.0107622 bus1=udt7272lv.1.2 bus2=p1ulv18048.1.2 switch=n enabled=y phases=2 Linecode=1P_UG_AL_1/0_Brenau_0_416_0_2_2

New Line.l(r:p1ulv15178-udm26905) Units=km Length=0.0255328 bus1=udm26905.1.2 bus2=p1ulv15178.1.2 switch=n enabled=y phases=2 Linecode=1P_OH_AL_2/0_Rucina_0_416_0_2_2

New Line.l(r:udm26905-udt7272lv) Units=km Length=0.0657207 bus1=udt7272lv.1.2 bus2=udm26905.1.2 switch=n enabled=y phases=2 Linecode=1P_OH_AL_4/0_Zuzara_0_416_0_2_2

New Line.l(r:p1ulv18038-udm26906) Units=km Length=0.0292438 bus1=udm26906.1.2 bus2=p1ulv18038.1.2 switch=n enabled=y phases=2 Linecode=1P_UG_AL_1/0_Brenau_0_416_0_2_2

New Line.l(r:p1ulv18041-udm26906) Units=km Length=0.0190304 bus1=udm26906.1.2 bus2=p1ulv18041.1.2 switch=n enabled=y phases=2 Linecode=1P_UG_AL_1/0_Brenau_0_416_0_2_2

New Line.l(r:p1ulv18049-udm26906) Units=km Length=0.0105689 bus1=udm26906.1.2 bus2=p1ulv18049.1.2 switch=n enabled=y phases=2 Linecode=1P_UG_AL_1/0_Brenau_0_416_0_2_2

New Line.l(r:p1ulv18039-udm26907) Units=km Length=0.028098100000000004 bus1=udm26907.1.2 bus2=p1ulv18039.1.2 switch=n enabled=y phases=2 Linecode=1P_UG_AL_1/0_Brenau_0_416_0_2_2

New Line.l(r:udm26906-udm26907) Units=km Length=0.00906718 bus1=udm26906.1.2 bus2=udm26907.1.2 switch=n enabled=y phases=2 Linecode=1P_UG_AL_1/0_Brenau_0_416_0_2_2

New Line.l(r:udm26906-udt7272lv) Units=km Length=0.00906388 bus1=udt7272lv.1.2 bus2=udm26906.1.2 switch=n enabled=y phases=2 Linecode=1P_UG_AL_4/0_Sweetbriar_0_416_0_2_2

New Line.l(r:p1ulv15304-udt7341lv) Units=km Length=0.0286147 bus1=udt7341lv.1.2 bus2=p1ulv15304.1.2 switch=n enabled=y phases=2 Linecode=1P_UG_AL_1/0_Brenau_0_416_0_2_2

New Line.l(r:p1ulv15330-udt7353lv) Units=km Length=0.014827700000000001 bus1=udt7353lv.1.2 bus2=p1ulv15330.1.2 switch=n enabled=y phases=2 Linecode=1P_OH_AL_2/0_Rucina_0_416_0_2_2

New Line.l(r:p1ulv15498-udt7433lv) Units=km Length=0.0690757 bus1=udt7433lv.1.2 bus2=p1ulv15498.1.2 switch=n enabled=y phases=2 Linecode=1P_OH_AL_4/0_Zuzara_0_416_0_2_2

New Line.l(r:p1ulv15817-udm27860) Units=km Length=0.028889900000000003 bus1=udm27860.1.2 bus2=p1ulv15817.1.2 switch=n enabled=y phases=2 Linecode=1P_UG_AL_1/0_Brenau_0_416_0_2_2

New Line.l(r:udm27860-udt7597lv) Units=km Length=0.0277172 bus1=udt7597lv.1.2 bus2=udm27860.1.2 switch=n enabled=y phases=2 Linecode=1P_UG_AL_1/0_Brenau_0_416_0_2_2

New Line.l(r:p1ulv22331-udm27861) Units=km Length=0.0266714 bus1=udm27861.1.2 bus2=p1ulv22331.1.2 switch=n enabled=y phases=2 Linecode=1P_UG_AL_1/0_Brenau_0_416_0_2_2

New Line.l(r:udm27861-udt7597lv) Units=km Length=0.0288545 bus1=udt7597lv.1.2 bus2=udm27861.1.2 switch=n enabled=y phases=2 Linecode=1P_UG_AL_1/0_Brenau_0_416_0_2_2

New Line.l(r:p1ulv17987-udt7860lv) Units=km Length=0.0129433 bus1=udt7860lv.1.2 bus2=p1ulv17987.1.2 switch=n enabled=y phases=2 Linecode=1P_UG_AL_1/0_Brenau_0_416_0_2_2

New Line.l(r:p1ulv17982-udm28759) Units=km Length=0.0112079 bus1=udm28759.1.2 bus2=p1ulv17982.1.2 switch=n enabled=y phases=2 Linecode=1P_UG_AL_1/0_Brenau_0_416_0_2_2

New Line.l(r:p1ulv17984-udm28759) Units=km Length=0.0116478 bus1=udm28759.1.2 bus2=p1ulv17984.1.2 switch=n enabled=y phases=2 Linecode=1P_UG_AL_1/0_Brenau_0_416_0_2_2

New Line.l(r:p1ulv17985-udm28761) Units=km Length=0.0118843 bus1=udm28761.1.2 bus2=p1ulv17985.1.2 switch=n enabled=y phases=2 Linecode=1P_UG_AL_1/0_Brenau_0_416_0_2_2

New Line.l(r:p1ulv17986-udm28761) Units=km Length=0.0137951 bus1=udm28761.1.2 bus2=p1ulv17986.1.2 switch=n enabled=y phases=2 Linecode=1P_UG_AL_1/0_Brenau_0_416_0_2_2

New Line.l(r:udm28759-udm28761) Units=km Length=0.00865744 bus1=udm28759.1.2 bus2=udm28761.1.2 switch=n enabled=y phases=2 Linecode=1P_UG_AL_1/0_Brenau_0_416_0_2_2

New Line.l(r:udm28759-udt7860lv) Units=km Length=0.00842076 bus1=udt7860lv.1.2 bus2=udm28759.1.2 switch=n enabled=y phases=2 Linecode=1P_UG_AL_4/0_Sweetbriar_0_416_0_2_2

New Line.l(r:p1ulv17988-udm28764) Units=km Length=0.0119095 bus1=udm28764.1.2 bus2=p1ulv17988.1.2 switch=n enabled=y phases=2 Linecode=1P_UG_AL_1/0_Brenau_0_416_0_2_2

New Line.l(r:p1ulv17989-udm28765) Units=km Length=0.011757 bus1=udm28765.1.2 bus2=p1ulv17989.1.2 switch=n enabled=y phases=2 Linecode=1P_UG_AL_1/0_Brenau_0_416_0_2_2

New Line.l(r:p1ulv17990-udm28765) Units=km Length=0.0112144 bus1=udm28765.1.2 bus2=p1ulv17990.1.2 switch=n enabled=y phases=2 Linecode=1P_UG_AL_1/0_Brenau_0_416_0_2_2

New Line.l(r:p1ulv16261-udm28758) Units=km Length=0.00726086 bus1=udm28758.1.2 bus2=p1ulv16261.1.2 switch=n enabled=y phases=2 Linecode=1P_UG_AL_1/0_Brenau_0_416_0_2_2

New Line.l(r:p1ulv18097-udm28758) Units=km Length=0.00944434 bus1=udm28758.1.2 bus2=p1ulv18097.1.2 switch=n enabled=y phases=2 Linecode=1P_UG_AL_1/0_Brenau_0_416_0_2_2

New Line.l(r:udm28758-udm28765) Units=km Length=0.00800788 bus1=udm28765.1.2 bus2=udm28758.1.2 switch=n enabled=y phases=2 Linecode=1P_UG_AL_2/0_Converse_0_416_0_2_2

New Line.l(r:udm28764-udm28765) Units=km Length=0.00800952 bus1=udm28764.1.2 bus2=udm28765.1.2 switch=n enabled=y phases=2 Linecode=1P_UG_AL_4/0_Sweetbriar_0_416_0_2_2

New Line.l(r:udm28764-udt7860lv) Units=km Length=0.00954063 bus1=udt7860lv.1.2 bus2=udm28764.1.2 switch=n enabled=y phases=2 Linecode=1P_UG_AL_4/0_Sweetbriar_0_416_0_2_2

New Line.l(r:p1ulv16262-udt7861lv) Units=km Length=0.0150034 bus1=udt7861lv.1.2 bus2=p1ulv16262.1.2 switch=n enabled=y phases=2 Linecode=1P_UG_AL_1/0_Brenau_0_416_0_2_2

New Line.l(r:p1ulv16276-udt7861lv) Units=km Length=0.0135723 bus1=udt7861lv.1.2 bus2=p1ulv16276.1.2 switch=n enabled=y phases=2 Linecode=1P_UG_AL_1/0_Brenau_0_416_0_2_2

New Line.l(r:p1ulv16263-udm28769) Units=km Length=0.015239700000000002 bus1=udm28769.1.2 bus2=p1ulv16263.1.2 switch=n enabled=y phases=2 Linecode=1P_UG_AL_1/0_Brenau_0_416_0_2_2

New Line.l(r:p1ulv16277-udm28769) Units=km Length=0.0130165 bus1=udm28769.1.2 bus2=p1ulv16277.1.2 switch=n enabled=y phases=2 Linecode=1P_UG_AL_1/0_Brenau_0_416_0_2_2

New Line.l(r:p1ulv16264-udm28770) Units=km Length=0.0157267 bus1=udm28770.1.2 bus2=p1ulv16264.1.2 switch=n enabled=y phases=2 Linecode=1P_UG_AL_1/0_Brenau_0_416_0_2_2

New Line.l(r:p1ulv16278-udm28770) Units=km Length=0.0125753 bus1=udm28770.1.2 bus2=p1ulv16278.1.2 switch=n enabled=y phases=2 Linecode=1P_UG_AL_1/0_Brenau_0_416_0_2_2

New Line.l(r:udm28769-udm28770) Units=km Length=0.00896565 bus1=udm28769.1.2 bus2=udm28770.1.2 switch=n enabled=y phases=2 Linecode=1P_UG_AL_1/0_Brenau_0_416_0_2_2

New Line.l(r:udm28769-udt7861lv) Units=km Length=0.00896565 bus1=udt7861lv.1.2 bus2=udm28769.1.2 switch=n enabled=y phases=2 Linecode=1P_UG_AL_2/0_Converse_0_416_0_2_2

New Line.l(r:p1ulv16266-udm28771) Units=km Length=0.014536400000000001 bus1=udm28771.1.2 bus2=p1ulv16266.1.2 switch=n enabled=y phases=2 Linecode=1P_UG_AL_1/0_Brenau_0_416_0_2_2

New Line.l(r:p1ulv16279-udm28775) Units=km Length=0.0138531 bus1=udm28775.1.2 bus2=p1ulv16279.1.2 switch=n enabled=y phases=2 Linecode=1P_UG_AL_1/0_Brenau_0_416_0_2_2

New Line.l(r:p1ulv16280-udm28775) Units=km Length=0.0125494 bus1=udm28775.1.2 bus2=p1ulv16280.1.2 switch=n enabled=y phases=2 Linecode=1P_UG_AL_1/0_Brenau_0_416_0_2_2

New Line.l(r:p1ulv16281-udm28777) Units=km Length=0.0105126 bus1=udm28777.1.2 bus2=p1ulv16281.1.2 switch=n enabled=y phases=2 Linecode=1P_UG_AL_1/0_Brenau_0_416_0_2_2

New Line.l(r:udm28775-udm28777) Units=km Length=0.014904 bus1=udm28775.1.2 bus2=udm28777.1.2 switch=n enabled=y phases=2 Linecode=1P_UG_AL_1/0_Brenau_0_416_0_2_2

New Line.l(r:udm28771-udm28775) Units=km Length=0.00775012 bus1=udm28771.1.2 bus2=udm28775.1.2 switch=n enabled=y phases=2 Linecode=1P_UG_AL_4/0_Sweetbriar_0_416_0_2_2

New Line.l(r:udm28771-udt7861lv) Units=km Length=0.00897504 bus1=udt7861lv.1.2 bus2=udm28771.1.2 switch=n enabled=y phases=2 Linecode=1P_UG_AL_4/0_Sweetbriar_0_416_0_2_2

New Line.l(r:p1ulv16273-udt7862lv) Units=km Length=0.0174319 bus1=udt7862lv.1.2 bus2=p1ulv16273.1.2 switch=n enabled=y phases=2 Linecode=1P_UG_AL_1/0_Brenau_0_416_0_2_2

New Line.l(r:p1ulv16269-udm28779) Units=km Length=0.0167172 bus1=udm28779.1.2 bus2=p1ulv16269.1.2 switch=n enabled=y phases=2 Linecode=1P_UG_AL_1/0_Brenau_0_416_0_2_2

New Line.l(r:p1ulv16270-udm28779) Units=km Length=0.0157946 bus1=udm28779.1.2 bus2=p1ulv16270.1.2 switch=n enabled=y phases=2 Linecode=1P_UG_AL_1/0_Brenau_0_416_0_2_2

New Line.l(r:p1ulv16272-udm28779) Units=km Length=0.0166978 bus1=udm28779.1.2 bus2=p1ulv16272.1.2 switch=n enabled=y phases=2 Linecode=1P_UG_AL_1/0_Brenau_0_416_0_2_2

New Line.l(r:p1ulv16268-udm28778) Units=km Length=0.0181243 bus1=udm28778.1.2 bus2=p1ulv16268.1.2 switch=n enabled=y phases=2 Linecode=1P_UG_AL_1/0_Brenau_0_416_0_2_2

New Line.l(r:udm28778-udm28779) Units=km Length=0.00492833 bus1=udm28779.1.2 bus2=udm28778.1.2 switch=n enabled=y phases=2 Linecode=1P_UG_AL_1/0_Brenau_0_416_0_2_2

New Line.l(r:udm28779-udt7862lv) Units=km Length=0.0071597 bus1=udt7862lv.1.2 bus2=udm28779.1.2 switch=n enabled=y phases=2 Linecode=1P_UG_AL_4/0_Sweetbriar_0_416_0_2_2

New Line.l(r:p1ulv16274-udm28783) Units=km Length=0.0179429 bus1=udm28783.1.2 bus2=p1ulv16274.1.2 switch=n enabled=y phases=2 Linecode=1P_UG_AL_1/0_Brenau_0_416_0_2_2

New Line.l(r:p1ulv16275-udm28783) Units=km Length=0.0198574 bus1=udm28783.1.2 bus2=p1ulv16275.1.2 switch=n enabled=y phases=2 Linecode=1P_UG_AL_1/0_Brenau_0_416_0_2_2

New Line.l(r:udm28783-udt7862lv) Units=km Length=0.0071538800000000005 bus1=udt7862lv.1.2 bus2=udm28783.1.2 switch=n enabled=y phases=2 Linecode=1P_UG_AL_1/0_Brenau_0_416_0_2_2

New Line.l(r:p1ulv16282-udm28785) Units=km Length=0.0175622 bus1=udm28785.1.2 bus2=p1ulv16282.1.2 switch=n enabled=y phases=2 Linecode=1P_UG_AL_1/0_Brenau_0_416_0_2_2

New Line.l(r:p1ulv16296-udm28785) Units=km Length=0.0133735 bus1=udm28785.1.2 bus2=p1ulv16296.1.2 switch=n enabled=y phases=2 Linecode=1P_UG_AL_1/0_Brenau_0_416_0_2_2

New Line.l(r:p1ulv16297-udm28785) Units=km Length=0.0160027 bus1=udm28785.1.2 bus2=p1ulv16297.1.2 switch=n enabled=y phases=2 Linecode=1P_UG_AL_1/0_Brenau_0_416_0_2_2

New Line.l(r:p1ulv16295-udm28789) Units=km Length=0.009032700000000001 bus1=udm28789.1.2 bus2=p1ulv16295.1.2 switch=n enabled=y phases=2 Linecode=1P_UG_AL_1/0_Brenau_0_416_0_2_2

New Line.l(r:udm28785-udm28789) Units=km Length=0.00987054 bus1=udm28785.1.2 bus2=udm28789.1.2 switch=n enabled=y phases=2 Linecode=1P_UG_AL_1/0_Brenau_0_416_0_2_2

New Line.l(r:udm28785-udt7863lv) Units=km Length=0.00988041 bus1=udt7863lv.1.2 bus2=udm28785.1.2 switch=n enabled=y phases=2 Linecode=1P_UG_AL_4/0_Sweetbriar_0_416_0_2_2

New Line.l(r:p1ulv16284-udm28786) Units=km Length=0.015468900000000002 bus1=udm28786.1.2 bus2=p1ulv16284.1.2 switch=n enabled=y phases=2 Linecode=1P_UG_AL_1/0_Brenau_0_416_0_2_2

New Line.l(r:p1ulv16285-udm28787) Units=km Length=0.013108000000000002 bus1=udm28787.1.2 bus2=p1ulv16285.1.2 switch=n enabled=y phases=2 Linecode=1P_UG_AL_1/0_Brenau_0_416_0_2_2

New Line.l(r:p1ulv16286-udm28788) Units=km Length=0.0105095 bus1=udm28788.1.2 bus2=p1ulv16286.1.2 switch=n enabled=y phases=2 Linecode=1P_UG_AL_1/0_Brenau_0_416_0_2_2

New Line.l(r:udm28787-udm28788) Units=km Length=0.00748954 bus1=udm28787.1.2 bus2=udm28788.1.2 switch=n enabled=y phases=2 Linecode=1P_UG_AL_1/0_Brenau_0_416_0_2_2

New Line.l(r:udm28786-udm28787) Units=km Length=0.0147761 bus1=udm28786.1.2 bus2=udm28787.1.2 switch=n enabled=y phases=2 Linecode=1P_UG_AL_1/0_Brenau_0_416_0_2_2

New Line.l(r:udm28786-udt7863lv) Units=km Length=0.0083224 bus1=udt7863lv.1.2 bus2=udm28786.1.2 switch=n enabled=y phases=2 Linecode=1P_UG_AL_2/0_Converse_0_416_0_2_2

New Line.l(r:p1ulv16288-udt7864lv) Units=km Length=0.0178184 bus1=udt7864lv.1.2 bus2=p1ulv16288.1.2 switch=n enabled=y phases=2 Linecode=1P_UG_AL_1/0_Brenau_0_416_0_2_2

New Line.l(r:p1ulv16287-udm28792) Units=km Length=0.0183115 bus1=udm28792.1.2 bus2=p1ulv16287.1.2 switch=n enabled=y phases=2 Linecode=1P_UG_AL_1/0_Brenau_0_416_0_2_2

New Line.l(r:p1ulv16299-udm28798) Units=km Length=0.00960042 bus1=udm28798.1.2 bus2=p1ulv16299.1.2 switch=n enabled=y phases=2 Linecode=1P_UG_AL_1/0_Brenau_0_416_0_2_2

New Line.l(r:p1ulv16300-udm28798) Units=km Length=0.00684202 bus1=udm28798.1.2 bus2=p1ulv16300.1.2 switch=n enabled=y phases=2 Linecode=1P_UG_AL_1/0_Brenau_0_416_0_2_2

New Line.l(r:p1ulv16298-udm28797) Units=km Length=0.014132900000000002 bus1=udm28797.1.2 bus2=p1ulv16298.1.2 switch=n enabled=y phases=2 Linecode=1P_UG_AL_1/0_Brenau_0_416_0_2_2

New Line.l(r:udm28797-udm28798) Units=km Length=0.00871281 bus1=udm28798.1.2 bus2=udm28797.1.2 switch=n enabled=y phases=2 Linecode=1P_UG_AL_1/0_Brenau_0_416_0_2_2

New Line.l(r:udm28792-udm28798) Units=km Length=0.00871281 bus1=udm28792.1.2 bus2=udm28798.1.2 switch=n enabled=y phases=2 Linecode=1P_UG_AL_2/0_Converse_0_416_0_2_2

New Line.l(r:udm28792-udt7864lv) Units=km Length=0.00819413 bus1=udt7864lv.1.2 bus2=udm28792.1.2 switch=n enabled=y phases=2 Linecode=1P_UG_AL_4/0_Sweetbriar_0_416_0_2_2

New Line.l(r:p1ulv16289-udm28794) Units=km Length=0.0174525 bus1=udm28794.1.2 bus2=p1ulv16289.1.2 switch=n enabled=y phases=2 Linecode=1P_UG_AL_1/0_Brenau_0_416_0_2_2

New Line.l(r:p1ulv16290-udm28794) Units=km Length=0.0164566 bus1=udm28794.1.2 bus2=p1ulv16290.1.2 switch=n enabled=y phases=2 Linecode=1P_UG_AL_1/0_Brenau_0_416_0_2_2

New Line.l(r:p1ulv16306-udm28794) Units=km Length=0.0142045 bus1=udm28794.1.2 bus2=p1ulv16306.1.2 switch=n enabled=y phases=2 Linecode=1P_UG_AL_1/0_Brenau_0_416_0_2_2

New Line.l(r:p1ulv16294-udm28796) Units=km Length=0.0169734 bus1=udm28796.1.2 bus2=p1ulv16294.1.2 switch=n enabled=y phases=2 Linecode=1P_UG_AL_1/0_Brenau_0_416_0_2_2

New Line.l(r:p1ulv16312-udm28801) Units=km Length=0.0182422 bus1=udm28801.1.2 bus2=p1ulv16312.1.2 switch=n enabled=y phases=2 Linecode=1P_UG_AL_1/0_Brenau_0_416_0_2_2

New Line.l(r:udm28796-udm28801) Units=km Length=0.00886288 bus1=udm28796.1.2 bus2=udm28801.1.2 switch=n enabled=y phases=2 Linecode=1P_UG_AL_1/0_Brenau_0_416_0_2_2

New Line.l(r:udm28794-udm28796) Units=km Length=0.0265574 bus1=udm28794.1.2 bus2=udm28796.1.2 switch=n enabled=y phases=2 Linecode=1P_UG_AL_1/0_Brenau_0_416_0_2_2

New Line.l(r:udm28794-udt7864lv) Units=km Length=0.00819413 bus1=udt7864lv.1.2 bus2=udm28794.1.2 switch=n enabled=y phases=2 Linecode=1P_UG_AL_4/0_Sweetbriar_0_416_0_2_2

New Line.l(r:p1ulv16301-udt7865lv) Units=km Length=0.0162565 bus1=udt7865lv.1.2 bus2=p1ulv16301.1.2 switch=n enabled=y phases=2 Linecode=1P_UG_AL_1/0_Brenau_0_416_0_2_2

New Line.l(r:p1ulv16293-udm28803) Units=km Length=0.0169918 bus1=udm28803.1.2 bus2=p1ulv16293.1.2 switch=n enabled=y phases=2 Linecode=1P_UG_AL_1/0_Brenau_0_416_0_2_2

New Line.l(r:p1ulv16302-udm28803) Units=km Length=0.0160328 bus1=udm28803.1.2 bus2=p1ulv16302.1.2 switch=n enabled=y phases=2 Linecode=1P_UG_AL_1/0_Brenau_0_416_0_2_2

New Line.l(r:p1ulv16303-udm28803) Units=km Length=0.0157154 bus1=udm28803.1.2 bus2=p1ulv16303.1.2 switch=n enabled=y phases=2 Linecode=1P_UG_AL_1/0_Brenau_0_416_0_2_2

New Line.l(r:p1ulv16292-udm28802) Units=km Length=0.0166618 bus1=udm28802.1.2 bus2=p1ulv16292.1.2 switch=n enabled=y phases=2 Linecode=1P_UG_AL_1/0_Brenau_0_416_0_2_2

New Line.l(r:p1ulv16304-udm28802) Units=km Length=0.0148841 bus1=udm28802.1.2 bus2=p1ulv16304.1.2 switch=n enabled=y phases=2 Linecode=1P_UG_AL_1/0_Brenau_0_416_0_2_2

New Line.l(r:udm28802-udm28803) Units=km Length=0.00885142 bus1=udm28803.1.2 bus2=udm28802.1.2 switch=n enabled=y phases=2 Linecode=1P_UG_AL_2/0_Converse_0_416_0_2_2

New Line.l(r:udm28803-udt7865lv) Units=km Length=0.00885301 bus1=udt7865lv.1.2 bus2=udm28803.1.2 switch=n enabled=y phases=2 Linecode=1P_UG_AL_4/0_Sweetbriar_0_416_0_2_2

New Line.l(r:p1ulv16307-udm28808) Units=km Length=0.011783 bus1=udm28808.1.2 bus2=p1ulv16307.1.2 switch=n enabled=y phases=2 Linecode=1P_UG_AL_1/0_Brenau_0_416_0_2_2

New Line.l(r:p1ulv16308-udm28808) Units=km Length=0.00991252 bus1=udm28808.1.2 bus2=p1ulv16308.1.2 switch=n enabled=y phases=2 Linecode=1P_UG_AL_1/0_Brenau_0_416_0_2_2
