New Line.l(r:p1ulv38930-udt1545lv) Units=km Length=0.015281 bus1=udt1545lv.1.2 bus2=p1ulv38930.1.2 switch=n enabled=y phases=2 Linecode=1P_OH_AL_2/0_Rucina_0_416_0_2_2

New Line.l(r:p1ulv3324-udm6226) Units=km Length=0.015029 bus1=udm6226.1.2 bus2=p1ulv3324.1.2 switch=n enabled=y phases=2 Linecode=1P_OH_AL_2/0_Rucina_0_416_0_2_2

New Line.l(r:udm6226-udt1545lv) Units=km Length=0.019245 bus1=udt1545lv.1.2 bus2=udm6226.1.2 switch=n enabled=y phases=2 Linecode=1P_OH_AL_2/0_Rucina_0_416_0_2_2

New Line.l(r:p1ulv30360-udm6227) Units=km Length=0.0143641 bus1=udm6227.1.2 bus2=p1ulv30360.1.2 switch=n enabled=y phases=2 Linecode=1P_OH_AL_2/0_Rucina_0_416_0_2_2

New Line.l(r:udm6227-udt1545lv) Units=km Length=0.019598000000000004 bus1=udt1545lv.1.2 bus2=udm6227.1.2 switch=n enabled=y phases=2 Linecode=1P_OH_AL_2/0_Rucina_0_416_0_2_2

New Line.l(r:p1ulv3327-udt1547lv) Units=km Length=0.014813900000000001 bus1=udt1547lv.1.2 bus2=p1ulv3327.1.2 switch=n enabled=y phases=2 Linecode=1P_UG_AL_1/0_Brenau_0_416_0_2_2

New Line.l(r:p1ulv35181-udm6234) Units=km Length=0.0167705 bus1=udm6234.1.2 bus2=p1ulv35181.1.2 switch=n enabled=y phases=2 Linecode=1P_UG_AL_1/0_Brenau_0_416_0_2_2

New Line.l(r:p1ulv44525-udm6236) Units=km Length=0.0165498 bus1=udm6236.1.2 bus2=p1ulv44525.1.2 switch=n enabled=y phases=2 Linecode=1P_UG_AL_1/0_Brenau_0_416_0_2_2

New Line.l(r:udm6234-udm6236) Units=km Length=0.00946121 bus1=udm6234.1.2 bus2=udm6236.1.2 switch=n enabled=y phases=2 Linecode=1P_UG_AL_1/0_Brenau_0_416_0_2_2

New Line.l(r:udm6234-udt1547lv) Units=km Length=0.00945653 bus1=udt1547lv.1.2 bus2=udm6234.1.2 switch=n enabled=y phases=2 Linecode=1P_UG_AL_2/0_Converse_0_416_0_2_2

New Line.l(r:p1ulv36597-udm6235) Units=km Length=0.0163601 bus1=udm6235.1.2 bus2=p1ulv36597.1.2 switch=n enabled=y phases=2 Linecode=1P_UG_AL_1/0_Brenau_0_416_0_2_2

New Line.l(r:p1ulv3329-udm6233) Units=km Length=0.0163748 bus1=udm6233.1.2 bus2=p1ulv3329.1.2 switch=n enabled=y phases=2 Linecode=1P_UG_AL_1/0_Brenau_0_416_0_2_2

New Line.l(r:udm6233-udm6235) Units=km Length=0.00945653 bus1=udm6235.1.2 bus2=udm6233.1.2 switch=n enabled=y phases=2 Linecode=1P_UG_AL_1/0_Brenau_0_416_0_2_2

New Line.l(r:udm6235-udt1547lv) Units=km Length=0.00947005 bus1=udt1547lv.1.2 bus2=udm6235.1.2 switch=n enabled=y phases=2 Linecode=1P_UG_AL_2/0_Converse_0_416_0_2_2

New Line.l(r:p1ulv3330-udt1549lv) Units=km Length=0.0172201 bus1=udt1549lv.1.2 bus2=p1ulv3330.1.2 switch=n enabled=y phases=2 Linecode=1P_UG_AL_1/0_Brenau_0_416_0_2_2

New Line.l(r:p1ulv19321-udm6239) Units=km Length=0.0217655 bus1=udm6239.1.2 bus2=p1ulv19321.1.2 switch=n enabled=y phases=2 Linecode=1P_UG_AL_1/0_Brenau_0_416_0_2_2

New Line.l(r:p1ulv19323-udm6240) Units=km Length=0.0132841 bus1=udm6240.1.2 bus2=p1ulv19323.1.2 switch=n enabled=y phases=2 Linecode=1P_UG_AL_1/0_Brenau_0_416_0_2_2

New Line.l(r:udm6239-udm6240) Units=km Length=0.0591744 bus1=udm6239.1.2 bus2=udm6240.1.2 switch=n enabled=y phases=2 Linecode=1P_UG_AL_1/0_Brenau_0_416_0_2_2

New Line.l(r:udm6239-udt1549lv) Units=km Length=0.0360256 bus1=udt1549lv.1.2 bus2=udm6239.1.2 switch=n enabled=y phases=2 Linecode=1P_UG_AL_1/0_Brenau_0_416_0_2_2

New Line.l(r:p1ulv26973-udm6241) Units=km Length=0.0193387 bus1=udm6241.1.2 bus2=p1ulv26973.1.2 switch=n enabled=y phases=2 Linecode=1P_UG_AL_1/0_Brenau_0_416_0_2_2

New Line.l(r:p1ulv40570-udm6242) Units=km Length=0.0382288 bus1=udm6242.1.2 bus2=p1ulv40570.1.2 switch=n enabled=y phases=2 Linecode=1P_UG_AL_1/0_Brenau_0_416_0_2_2

New Line.l(r:udm6241-udm6242) Units=km Length=0.0195267 bus1=udm6241.1.2 bus2=udm6242.1.2 switch=n enabled=y phases=2 Linecode=1P_UG_AL_1/0_Brenau_0_416_0_2_2

New Line.l(r:udm6241-udt1549lv) Units=km Length=0.00976226 bus1=udt1549lv.1.2 bus2=udm6241.1.2 switch=n enabled=y phases=2 Linecode=1P_UG_AL_1/0_Brenau_0_416_0_2_2

New Line.l(r:p1ulv3365-udt1550lv) Units=km Length=0.0130999 bus1=udt1550lv.1.2 bus2=p1ulv3365.1.2 switch=n enabled=y phases=2 Linecode=1P_UG_AL_1/0_Brenau_0_416_0_2_2

New Line.l(r:p1ulv3331-udm6243) Units=km Length=0.0132185 bus1=udm6243.1.2 bus2=p1ulv3331.1.2 switch=n enabled=y phases=2 Linecode=1P_UG_AL_1/0_Brenau_0_416_0_2_2

New Line.l(r:p1ulv49146-udm6243) Units=km Length=0.0208092 bus1=udm6243.1.2 bus2=p1ulv49146.1.2 switch=n enabled=y phases=2 Linecode=1P_UG_AL_1/0_Brenau_0_416_0_2_2

New Line.l(r:udm6243-udt1550lv) Units=km Length=0.0189262 bus1=udt1550lv.1.2 bus2=udm6243.1.2 switch=n enabled=y phases=2 Linecode=1P_UG_AL_4/0_Sweetbriar_0_416_0_2_2

New Line.l(r:p1ulv3353-udm6244) Units=km Length=0.015002 bus1=udm6244.1.2 bus2=p1ulv3353.1.2 switch=n enabled=y phases=2 Linecode=1P_UG_AL_1/0_Brenau_0_416_0_2_2

New Line.l(r:p1ulv28830-udm6244) Units=km Length=0.0126271 bus1=udm6244.1.2 bus2=p1ulv28830.1.2 switch=n enabled=y phases=2 Linecode=1P_UG_AL_1/0_Brenau_0_416_0_2_2

New Line.l(r:p1ulv33486-udm6247) Units=km Length=0.0109843 bus1=udm6247.1.2 bus2=p1ulv33486.1.2 switch=n enabled=y phases=2 Linecode=1P_UG_AL_1/0_Brenau_0_416_0_2_2

New Line.l(r:p1ulv43890-udm6247) Units=km Length=0.00892922 bus1=udm6247.1.2 bus2=p1ulv43890.1.2 switch=n enabled=y phases=2 Linecode=1P_UG_AL_1/0_Brenau_0_416_0_2_2

New Line.l(r:udm6244-udm6247) Units=km Length=0.0189262 bus1=udm6244.1.2 bus2=udm6247.1.2 switch=n enabled=y phases=2 Linecode=1P_UG_AL_2/0_Converse_0_416_0_2_2

New Line.l(r:udm6244-udt1550lv) Units=km Length=0.0094578 bus1=udt1550lv.1.2 bus2=udm6244.1.2 switch=n enabled=y phases=2 Linecode=1P_UG_AL_4/0_Sweetbriar_0_416_0_2_2

New Line.l(r:p1ulv19328-udm6257) Units=km Length=0.0152241 bus1=udm6257.1.2 bus2=p1ulv19328.1.2 switch=n enabled=y phases=2 Linecode=1P_UG_AL_2/0_Converse_0_416_0_2_2

New Line.l(r:p1ulv27077-udm6257) Units=km Length=0.0148202 bus1=udm6257.1.2 bus2=p1ulv27077.1.2 switch=n enabled=y phases=2 Linecode=1P_UG_AL_1/0_Brenau_0_416_0_2_2

New Line.l(r:p1ulv39473-udm6257) Units=km Length=0.046307 bus1=udm6257.1.2 bus2=p1ulv39473.1.2 switch=n enabled=y phases=2 Linecode=1P_UG_AL_1/0_Brenau_0_416_0_2_2

New Line.l(r:p1ulv3336-udm6256) Units=km Length=0.0143964 bus1=udm6256.1.2 bus2=p1ulv3336.1.2 switch=n enabled=y phases=2 Linecode=1P_UG_AL_1/0_Brenau_0_416_0_2_2

New Line.l(r:p1ulv30324-udm6256) Units=km Length=0.0128315 bus1=udm6256.1.2 bus2=p1ulv30324.1.2 switch=n enabled=y phases=2 Linecode=1P_UG_AL_1/0_Brenau_0_416_0_2_2

New Line.l(r:p1ulv38364-udm6261) Units=km Length=0.013312100000000002 bus1=udm6261.1.2 bus2=p1ulv38364.1.2 switch=n enabled=y phases=2 Linecode=1P_UG_AL_1/0_Brenau_0_416_0_2_2

New Line.l(r:udm6256-udm6261) Units=km Length=0.00995158 bus1=udm6256.1.2 bus2=udm6261.1.2 switch=n enabled=y phases=2 Linecode=1P_UG_AL_1/0_Brenau_0_416_0_2_2

New Line.l(r:udm6256-udm6257) Units=km Length=0.009951110000000003 bus1=udm6257.1.2 bus2=udm6256.1.2 switch=n enabled=y phases=2 Linecode=1P_UG_AL_4/0_Sweetbriar_0_416_0_2_2

New Line.l(r:udm6257-udt1553lv) Units=km Length=0.00995158 bus1=udt1553lv.1.2 bus2=udm6257.1.2 switch=n enabled=y phases=2 Linecode=1P_UG_AL_4/0_Sweetbriar_0_416_0_2_2

New Line.l(r:p1ulv37126-udm6260) Units=km Length=0.0102639 bus1=udm6260.1.2 bus2=p1ulv37126.1.2 switch=n enabled=y phases=2 Linecode=1P_OH_AL_2/0_Rucina_0_416_0_2_2

New Line.l(r:udm6260-udt1553lv) Units=km Length=0.0891536 bus1=udt1553lv.1.2 bus2=udm6260.1.2 switch=n enabled=y phases=2 Linecode=1P_OH_AL_4/0_Zuzara_0_416_0_2_2

New Line.l(r:p1ulv3337-udm6263) Units=km Length=0.014218100000000001 bus1=udm6263.1.2 bus2=p1ulv3337.1.2 switch=n enabled=y phases=2 Linecode=1P_UG_AL_1/0_Brenau_0_416_0_2_2

New Line.l(r:p1ulv32991-udm6265) Units=km Length=0.0267714 bus1=udm6265.1.2 bus2=p1ulv32991.1.2 switch=n enabled=y phases=2 Linecode=1P_UG_AL_1/0_Brenau_0_416_0_2_2

New Line.l(r:udm6263-udm6265) Units=km Length=0.00862727 bus1=udm6263.1.2 bus2=udm6265.1.2 switch=n enabled=y phases=2 Linecode=1P_UG_AL_1/0_Brenau_0_416_0_2_2

New Line.l(r:udm6263-udt1554lv) Units=km Length=0.0156315 bus1=udt1554lv.1.2 bus2=udm6263.1.2 switch=n enabled=y phases=2 Linecode=1P_UG_AL_1/0_Brenau_0_416_0_2_2

New Line.l(r:p1ulv3339-udm6264) Units=km Length=0.0213571 bus1=udm6264.1.2 bus2=p1ulv3339.1.2 switch=n enabled=y phases=2 Linecode=1P_UG_AL_1/0_Brenau_0_416_0_2_2

New Line.l(r:udm6264-udt1554lv) Units=km Length=0.0359693 bus1=udt1554lv.1.2 bus2=udm6264.1.2 switch=n enabled=y phases=2 Linecode=1P_UG_AL_1/0_Brenau_0_416_0_2_2

New Line.l(r:p1ulv3338-udt1555lv) Units=km Length=0.0158663 bus1=udt1555lv.1.2 bus2=p1ulv3338.1.2 switch=n enabled=y phases=2 Linecode=1P_UG_AL_1/0_Brenau_0_416_0_2_2

New Line.l(r:p1ulv31389-udm6269) Units=km Length=0.0423631 bus1=udm6269.1.2 bus2=p1ulv31389.1.2 switch=n enabled=y phases=2 Linecode=1P_UG_AL_1/0_Brenau_0_416_0_2_2

New Line.l(r:p1ulv28899-udm6268) Units=km Length=0.0149041 bus1=udm6268.1.2 bus2=p1ulv28899.1.2 switch=n enabled=y phases=2 Linecode=1P_UG_AL_1/0_Brenau_0_416_0_2_2

New Line.l(r:p1ulv32201-udm6268) Units=km Length=0.0143199 bus1=udm6268.1.2 bus2=p1ulv32201.1.2 switch=n enabled=y phases=2 Linecode=1P_UG_AL_1/0_Brenau_0_416_0_2_2

New Line.l(r:udm6268-udm6269) Units=km Length=0.00989421 bus1=udm6269.1.2 bus2=udm6268.1.2 switch=n enabled=y phases=2 Linecode=1P_UG_AL_1/0_Brenau_0_416_0_2_2

New Line.l(r:udm6269-udt1555lv) Units=km Length=0.00989421 bus1=udt1555lv.1.2 bus2=udm6269.1.2 switch=n enabled=y phases=2 Linecode=1P_UG_AL_2/0_Converse_0_416_0_2_2

New Line.l(r:p1ulv33582-udm6271) Units=km Length=0.016530000000000003 bus1=udm6271.1.2 bus2=p1ulv33582.1.2 switch=n enabled=y phases=2 Linecode=1P_UG_AL_1/0_Brenau_0_416_0_2_2

New Line.l(r:p1ulv26139-udm6267) Units=km Length=0.0099943 bus1=udm6267.1.2 bus2=p1ulv26139.1.2 switch=n enabled=y phases=2 Linecode=1P_UG_AL_1/0_Brenau_0_416_0_2_2

New Line.l(r:udm6267-udm6271) Units=km Length=0.00989421 bus1=udm6271.1.2 bus2=udm6267.1.2 switch=n enabled=y phases=2 Linecode=1P_UG_AL_1/0_Brenau_0_416_0_2_2

New Line.l(r:udm6271-udt1555lv) Units=km Length=0.00989475 bus1=udt1555lv.1.2 bus2=udm6271.1.2 switch=n enabled=y phases=2 Linecode=1P_UG_AL_2/0_Converse_0_416_0_2_2

New Line.l(r:p1ulv3340-udt1556lv) Units=km Length=0.0233287 bus1=udt1556lv.1.2 bus2=p1ulv3340.1.2 switch=n enabled=y phases=2 Linecode=1P_UG_AL_1/0_Brenau_0_416_0_2_2

New Line.l(r:p1ulv47771-udt1556lv) Units=km Length=0.0230191 bus1=udt1556lv.1.2 bus2=p1ulv47771.1.2 switch=n enabled=y phases=2 Linecode=1P_UG_AL_1/0_Brenau_0_416_0_2_2

New Line.l(r:p1ulv3341-udt1557lv) Units=km Length=0.0177136 bus1=udt1557lv.1.2 bus2=p1ulv3341.1.2 switch=n enabled=y phases=2 Linecode=1P_UG_AL_1/0_Brenau_0_416_0_2_2

New Line.l(r:p1ulv28525-udt1557lv) Units=km Length=0.0154625 bus1=udt1557lv.1.2 bus2=p1ulv28525.1.2 switch=n enabled=y phases=2 Linecode=1P_UG_AL_1/0_Brenau_0_416_0_2_2

New Line.l(r:p1ulv49281-udt1558lv) Units=km Length=0.0141946 bus1=udt1558lv.1.2 bus2=p1ulv49281.1.2 switch=n enabled=y phases=2 Linecode=1P_UG_AL_1/0_Brenau_0_416_0_2_2

New Line.l(r:p1ulv3342-udm6276) Units=km Length=0.0163407 bus1=udm6276.1.2 bus2=p1ulv3342.1.2 switch=n enabled=y phases=2 Linecode=1P_UG_AL_2/0_Converse_0_416_0_2_2

New Line.l(r:p1ulv33421-udm6278) Units=km Length=0.0148804 bus1=udm6278.1.2 bus2=p1ulv33421.1.2 switch=n enabled=y phases=2 Linecode=1P_UG_AL_1/0_Brenau_0_416_0_2_2

New Line.l(r:p1ulv33802-udm6278) Units=km Length=0.01533 bus1=udm6278.1.2 bus2=p1ulv33802.1.2 switch=n enabled=y phases=2 Linecode=1P_UG_AL_1/0_Brenau_0_416_0_2_2

New Line.l(r:p1ulv34849-udm6280) Units=km Length=0.0168614 bus1=udm6280.1.2 bus2=p1ulv34849.1.2 switch=n enabled=y phases=2 Linecode=1P_UG_AL_1/0_Brenau_0_416_0_2_2

New Line.l(r:udm6278-udm6280) Units=km Length=0.00952532 bus1=udm6278.1.2 bus2=udm6280.1.2 switch=n enabled=y phases=2 Linecode=1P_UG_AL_1/0_Brenau_0_416_0_2_2

New Line.l(r:udm6276-udm6278) Units=km Length=0.00951591 bus1=udm6276.1.2 bus2=udm6278.1.2 switch=n enabled=y phases=2 Linecode=1P_UG_AL_4/0_Sweetbriar_0_416_0_2_2

New Line.l(r:udm6276-udt1558lv) Units=km Length=0.00952589 bus1=udt1558lv.1.2 bus2=udm6276.1.2 switch=n enabled=y phases=2 Linecode=1P_UG_AL_4/0_Sweetbriar_0_416_0_2_2

New Line.l(r:p1ulv36805-udm6281) Units=km Length=0.0150003 bus1=udm6281.1.2 bus2=p1ulv36805.1.2 switch=n enabled=y phases=2 Linecode=1P_UG_AL_1/0_Brenau_0_416_0_2_2

New Line.l(r:p1ulv28933-udm6277) Units=km Length=0.0139594 bus1=udm6277.1.2 bus2=p1ulv28933.1.2 switch=n enabled=y phases=2 Linecode=1P_UG_AL_1/0_Brenau_0_416_0_2_2

New Line.l(r:udm6277-udm6281) Units=km Length=0.018725 bus1=udm6281.1.2 bus2=udm6277.1.2 switch=n enabled=y phases=2 Linecode=1P_UG_AL_1/0_Brenau_0_416_0_2_2

New Line.l(r:udm6281-udt1558lv) Units=km Length=0.0186208 bus1=udt1558lv.1.2 bus2=udm6281.1.2 switch=n enabled=y phases=2 Linecode=1P_UG_AL_2/0_Converse_0_416_0_2_2

New Line.l(r:p1ulv3343-udt1559lv) Units=km Length=0.016310200000000004 bus1=udt1559lv.1.2 bus2=p1ulv3343.1.2 switch=n enabled=y phases=2 Linecode=1P_UG_AL_1/0_Brenau_0_416_0_2_2

New Line.l(r:p1ulv3344-udt1560lv) Units=km Length=0.0196679 bus1=udt1560lv.1.2 bus2=p1ulv3344.1.2 switch=n enabled=y phases=2 Linecode=1P_UG_AL_1/0_Brenau_0_416_0_2_2

New Line.l(r:p1ulv3345-udm6285) Units=km Length=0.023548700000000002 bus1=udm6285.1.2 bus2=p1ulv3345.1.2 switch=n enabled=y phases=2 Linecode=1P_UG_AL_1/0_Brenau_0_416_0_2_2

New Line.l(r:p1ulv29470-udm6287) Units=km Length=0.0143431 bus1=udm6287.1.2 bus2=p1ulv29470.1.2 switch=n enabled=y phases=2 Linecode=1P_UG_AL_1/0_Brenau_0_416_0_2_2

New Line.l(r:p1ulv42226-udm6287) Units=km Length=0.0178481 bus1=udm6287.1.2 bus2=p1ulv42226.1.2 switch=n enabled=y phases=2 Linecode=1P_UG_AL_1/0_Brenau_0_416_0_2_2

New Line.l(r:udm6285-udm6287) Units=km Length=0.009157080000000001 bus1=udm6285.1.2 bus2=udm6287.1.2 switch=n enabled=y phases=2 Linecode=1P_UG_AL_1/0_Brenau_0_416_0_2_2

New Line.l(r:udm6285-udt1561lv) Units=km Length=0.00914749 bus1=udt1561lv.1.2 bus2=udm6285.1.2 switch=n enabled=y phases=2 Linecode=1P_UG_AL_4/0_Sweetbriar_0_416_0_2_2

New Line.l(r:p1ulv3349-udm6286) Units=km Length=0.0149994 bus1=udm6286.1.2 bus2=p1ulv3349.1.2 switch=n enabled=y phases=2 Linecode=1P_UG_AL_1/0_Brenau_0_416_0_2_2

New Line.l(r:p1ulv33060-udm6286) Units=km Length=0.013328700000000002 bus1=udm6286.1.2 bus2=p1ulv33060.1.2 switch=n enabled=y phases=2 Linecode=1P_UG_AL_1/0_Brenau_0_416_0_2_2

New Line.l(r:p1ulv38243-udm6286) Units=km Length=0.0122728 bus1=udm6286.1.2 bus2=p1ulv38243.1.2 switch=n enabled=y phases=2 Linecode=1P_UG_AL_1/0_Brenau_0_416_0_2_2

New Line.l(r:udm6286-udt1561lv) Units=km Length=0.00915748 bus1=udt1561lv.1.2 bus2=udm6286.1.2 switch=n enabled=y phases=2 Linecode=1P_UG_AL_4/0_Sweetbriar_0_416_0_2_2

New Line.l(r:p1ulv40714-udt1562lv) Units=km Length=0.0133297 bus1=udt1562lv.1.2 bus2=p1ulv40714.1.2 switch=n enabled=y phases=2 Linecode=1P_UG_AL_1/0_Brenau_0_416_0_2_2

New Line.l(r:p1ulv3346-udm6291) Units=km Length=0.0107667 bus1=udm6291.1.2 bus2=p1ulv3346.1.2 switch=n enabled=y phases=2 Linecode=1P_UG_AL_1/0_Brenau_0_416_0_2_2

New Line.l(r:udm6291-udt1562lv) Units=km Length=0.00952007 bus1=udt1562lv.1.2 bus2=udm6291.1.2 switch=n enabled=y phases=2 Linecode=1P_UG_AL_1/0_Brenau_0_416_0_2_2

New Line.l(r:p1ulv3348-udm6294) Units=km Length=0.0240989 bus1=udm6294.1.2 bus2=p1ulv3348.1.2 switch=n enabled=y phases=2 Linecode=1P_UG_AL_4/0_Sweetbriar_0_416_0_2_2

New Line.l(r:udm6294-udt1564lv) Units=km Length=0.0585255 bus1=udt1564lv.1.2 bus2=udm6294.1.2 switch=n enabled=y phases=2 Linecode=1P_UG_AL_4/0_Sweetbriar_0_416_0_2_2

New Line.l(r:p1ulv45905-udm6295) Units=km Length=0.0158951 bus1=udm6295.1.2 bus2=p1ulv45905.1.2 switch=n enabled=y phases=2 Linecode=1P_UG_AL_1/0_Brenau_0_416_0_2_2

New Line.l(r:udm6295-udt1564lv) Units=km Length=0.07780840000000001 bus1=udt1564lv.1.2 bus2=udm6295.1.2 switch=n enabled=y phases=2 Linecode=1P_UG_AL_1/0_Brenau_0_416_0_2_2

New Line.l(r:p1ulv3351-udt1565lv) Units=km Length=0.0143539 bus1=udt1565lv.1.2 bus2=p1ulv3351.1.2 switch=n enabled=y phases=2 Linecode=1P_UG_AL_1/0_Brenau_0_416_0_2_2

New Line.l(r:p1ulv19330-udt1565lv) Units=km Length=0.0151129 bus1=udt1565lv.1.2 bus2=p1ulv19330.1.2 switch=n enabled=y phases=2 Linecode=1P_UG_AL_1/0_Brenau_0_416_0_2_2

New Line.l(r:p1ulv3352-udm6298) Units=km Length=0.01412 bus1=udm6298.1.2 bus2=p1ulv3352.1.2 switch=n enabled=y phases=2 Linecode=1P_UG_AL_1/0_Brenau_0_416_0_2_2

New Line.l(r:p1ulv33218-udm6298) Units=km Length=0.0161386 bus1=udm6298.1.2 bus2=p1ulv33218.1.2 switch=n enabled=y phases=2 Linecode=1P_UG_AL_1/0_Brenau_0_416_0_2_2

New Line.l(r:p1ulv26745-udm6300) Units=km Length=0.015010000000000003 bus1=udm6300.1.2 bus2=p1ulv26745.1.2 switch=n enabled=y phases=2 Linecode=1P_UG_AL_1/0_Brenau_0_416_0_2_2

New Line.l(r:p1ulv31216-udm6302) Units=km Length=0.014502800000000001 bus1=udm6302.1.2 bus2=p1ulv31216.1.2 switch=n enabled=y phases=2 Linecode=1P_UG_AL_1/0_Brenau_0_416_0_2_2

New Line.l(r:p1ulv29758-udm6301) Units=km Length=0.0177246 bus1=udm6301.1.2 bus2=p1ulv29758.1.2 switch=n enabled=y phases=2 Linecode=1P_UG_AL_1/0_Brenau_0_416_0_2_2

New Line.l(r:udm6301-udm6302) Units=km Length=0.00909907 bus1=udm6302.1.2 bus2=udm6301.1.2 switch=n enabled=y phases=2 Linecode=1P_UG_AL_1/0_Brenau_0_416_0_2_2

New Line.l(r:udm6300-udm6302) Units=km Length=0.00909907 bus1=udm6300.1.2 bus2=udm6302.1.2 switch=n enabled=y phases=2 Linecode=1P_UG_AL_2/0_Converse_0_416_0_2_2

New Line.l(r:udm6298-udm6300) Units=km Length=0.00946753 bus1=udm6298.1.2 bus2=udm6300.1.2 switch=n enabled=y phases=2 Linecode=1P_UG_AL_4/0_Sweetbriar_0_416_0_2_2

New Line.l(r:udm6298-udt1566lv) Units=km Length=0.00947202 bus1=udt1566lv.1.2 bus2=udm6298.1.2 switch=n enabled=y phases=2 Linecode=1P_UG_AL_4/0_Sweetbriar_0_416_0_2_2

New Line.l(r:p1ulv3354-udm6299) Units=km Length=0.0110937 bus1=udm6299.1.2 bus2=p1ulv3354.1.2 switch=n enabled=y phases=2 Linecode=1P_UG_AL_1/0_Brenau_0_416_0_2_2

New Line.l(r:p1ulv45788-udm6299) Units=km Length=0.0116079 bus1=udm6299.1.2 bus2=p1ulv45788.1.2 switch=n enabled=y phases=2 Linecode=1P_UG_AL_1/0_Brenau_0_416_0_2_2

New Line.l(r:udm6299-udt1566lv) Units=km Length=0.0750612 bus1=udt1566lv.1.2 bus2=udm6299.1.2 switch=n enabled=y phases=2 Linecode=1P_UG_AL_1/0_Brenau_0_416_0_2_2

New Line.l(r:p1ulv3356-udm6310) Units=km Length=0.0140597 bus1=udm6310.1.2 bus2=p1ulv3356.1.2 switch=n enabled=y phases=2 Linecode=1P_OH_AL_2/0_Rucina_0_416_0_2_2

New Line.l(r:udm6310-udt1568lv) Units=km Length=0.0153714 bus1=udt1568lv.1.2 bus2=udm6310.1.2 switch=n enabled=y phases=2 Linecode=1P_OH_AL_2/0_Rucina_0_416_0_2_2

New Line.l(r:p1ulv3367-udm6311) Units=km Length=0.03592610000000001 bus1=udm6311.1.2 bus2=p1ulv3367.1.2 switch=n enabled=y phases=2 Linecode=1P_OH_AL_4/0_Zuzara_0_416_0_2_2

New Line.l(r:udm6311-udt1568lv) Units=km Length=0.0153615 bus1=udt1568lv.1.2 bus2=udm6311.1.2 switch=n enabled=y phases=2 Linecode=1P_OH_AL_2/0_Rucina_0_416_0_2_2

New Line.l(r:p1ulv36315-udt1572lv) Units=km Length=0.012715900000000002 bus1=udt1572lv.1.2 bus2=p1ulv36315.1.2 switch=n enabled=y phases=2 Linecode=1P_UG_AL_1/0_Brenau_0_416_0_2_2

New Line.l(r:p1ulv27694-udm6325) Units=km Length=0.016257200000000003 bus1=udm6325.1.2 bus2=p1ulv27694.1.2 switch=n enabled=y phases=2 Linecode=1P_UG_AL_1/0_Brenau_0_416_0_2_2

New Line.l(r:p1ulv47704-udm6329) Units=km Length=0.012056600000000002 bus1=udm6329.1.2 bus2=p1ulv47704.1.2 switch=n enabled=y phases=2 Linecode=1P_UG_AL_4/0_Sweetbriar_0_416_0_2_2

New Line.l(r:udm6325-udm6329) Units=km Length=0.0182524 bus1=udm6325.1.2 bus2=udm6329.1.2 switch=n enabled=y phases=2 Linecode=1P_UG_AL_4/0_Sweetbriar_0_416_0_2_2

New Line.l(r:udm6325-udt1572lv) Units=km Length=0.0171431 bus1=udt1572lv.1.2 bus2=udm6325.1.2 switch=n enabled=y phases=2 Linecode=1P_UG_AL_4/0_Sweetbriar_0_416_0_2_2

New Line.l(r:p1ulv31705-udm6326) Units=km Length=0.010411 bus1=udm6326.1.2 bus2=p1ulv31705.1.2 switch=n enabled=y phases=2 Linecode=1P_UG_AL_1/0_Brenau_0_416_0_2_2

New Line.l(r:p1ulv3361-udm6324) Units=km Length=0.0323745 bus1=udm6324.1.2 bus2=p1ulv3361.1.2 switch=n enabled=y phases=2 Linecode=1P_UG_AL_1/0_Brenau_0_416_0_2_2

New Line.l(r:p1ulv35270-udm6327) Units=km Length=0.00988032 bus1=udm6327.1.2 bus2=p1ulv35270.1.2 switch=n enabled=y phases=2 Linecode=1P_UG_AL_1/0_Brenau_0_416_0_2_2

New Line.l(r:udm6324-udm6327) Units=km Length=0.00757201 bus1=udm6324.1.2 bus2=udm6327.1.2 switch=n enabled=y phases=2 Linecode=1P_UG_AL_1/0_Brenau_0_416_0_2_2

New Line.l(r:udm6324-udm6326) Units=km Length=0.0237163 bus1=udm6326.1.2 bus2=udm6324.1.2 switch=n enabled=y phases=2 Linecode=1P_UG_AL_1/0_Brenau_0_416_0_2_2

New Line.l(r:udm6326-udt1572lv) Units=km Length=0.00856986 bus1=udt1572lv.1.2 bus2=udm6326.1.2 switch=n enabled=y phases=2 Linecode=1P_UG_AL_4/0_Sweetbriar_0_416_0_2_2

New Line.l(r:p1ulv3374-udm6348) Units=km Length=0.0186251 bus1=udm6348.1.2 bus2=p1ulv3374.1.2 switch=n enabled=y phases=2 Linecode=1P_OH_AL_2/0_Rucina_0_416_0_2_2

New Line.l(r:p1ulv37891-udm6348) Units=km Length=0.0228901 bus1=udm6348.1.2 bus2=p1ulv37891.1.2 switch=n enabled=y phases=2 Linecode=1P_OH_AL_2/0_Rucina_0_416_0_2_2

New Line.l(r:udm6348-udt1581lv) Units=km Length=0.019485200000000005 bus1=udt1581lv.1.2 bus2=udm6348.1.2 switch=n enabled=y phases=2 Linecode=1P_OH_AL_2/0_Rucina_0_416_0_2_2

New Line.l(r:p1ulv30494-udm6349) Units=km Length=0.0253142 bus1=udm6349.1.2 bus2=p1ulv30494.1.2 switch=n enabled=y phases=2 Linecode=1P_OH_AL_2/0_Rucina_0_416_0_2_2

New Line.l(r:udm6349-udt1581lv) Units=km Length=0.0389698 bus1=udt1581lv.1.2 bus2=udm6349.1.2 switch=n enabled=y phases=2 Linecode=1P_OH_AL_4/0_Zuzara_0_416_0_2_2

New Line.l(r:p1ulv50947-udt1582lv) Units=km Length=0.0131455 bus1=udt1582lv.1.2 bus2=p1ulv50947.1.2 switch=n enabled=y phases=2 Linecode=1P_UG_AL_1/0_Brenau_0_416_0_2_2

New Line.l(r:p1ulv3376-udm6351) Units=km Length=0.007278850000000001 bus1=udm6351.1.2 bus2=p1ulv3376.1.2 switch=n enabled=y phases=2 Linecode=1P_UG_AL_1/0_Brenau_0_416_0_2_2

New Line.l(r:p1ulv3378-udm6351) Units=km Length=0.013334400000000001 bus1=udm6351.1.2 bus2=p1ulv3378.1.2 switch=n enabled=y phases=2 Linecode=1P_UG_AL_1/0_Brenau_0_416_0_2_2

New Line.l(r:udm6351-udt1582lv) Units=km Length=0.0094578 bus1=udt1582lv.1.2 bus2=udm6351.1.2 switch=n enabled=y phases=2 Linecode=1P_UG_AL_2/0_Converse_0_416_0_2_2

New Line.l(r:p1ulv16911-udt8122lv) Units=km Length=0.042147300000000006 bus1=udt8122lv.1.2 bus2=p1ulv16911.1.2 switch=n enabled=y phases=2 Linecode=1P_OH_AL_4/0_Zuzara_0_416_0_2_2

New Line.l(r:p1ulv19318-udt9077lv) Units=km Length=0.0267514 bus1=udt9077lv.1.2 bus2=p1ulv19318.1.2 switch=n enabled=y phases=2 Linecode=1P_OH_AL_2/0_Rucina_0_416_0_2_2

New Line.l(r:p1ulv31278-udt9078lv) Units=km Length=0.013687700000000002 bus1=udt9078lv.1.2 bus2=p1ulv31278.1.2 switch=n enabled=y phases=2 Linecode=1P_UG_AL_1/0_Brenau_0_416_0_2_2

New Line.l(r:p1ulv39374-udt9078lv) Units=km Length=0.012006 bus1=udt9078lv.1.2 bus2=p1ulv39374.1.2 switch=n enabled=y phases=2 Linecode=1P_UG_AL_1/0_Brenau_0_416_0_2_2

New Line.l(r:p1ulv19319-udm32087) Units=km Length=0.014258400000000001 bus1=udm32087.1.2 bus2=p1ulv19319.1.2 switch=n enabled=y phases=2 Linecode=1P_UG_AL_1/0_Brenau_0_416_0_2_2

New Line.l(r:udm32087-udt9078lv) Units=km Length=0.0190418 bus1=udt9078lv.1.2 bus2=udm32087.1.2 switch=n enabled=y phases=2 Linecode=1P_UG_AL_1/0_Brenau_0_416_0_2_2

New Line.l(r:p1ulv36253-udm32089) Units=km Length=0.0143736 bus1=udm32089.1.2 bus2=p1ulv36253.1.2 switch=n enabled=y phases=2 Linecode=1P_UG_AL_2/0_Converse_0_416_0_2_2

New Line.l(r:udm32089-udt9078lv) Units=km Length=0.00952589 bus1=udt9078lv.1.2 bus2=udm32089.1.2 switch=n enabled=y phases=2 Linecode=1P_UG_AL_2/0_Converse_0_416_0_2_2

New Line.l(r:p1ulv42910-udm32099) Units=km Length=0.017356900000000005 bus1=udm32099.1.2 bus2=p1ulv42910.1.2 switch=n enabled=y phases=2 Linecode=1P_UG_AL_1/0_Brenau_0_416_0_2_2

New Line.l(r:p1ulv19324-udm32098) Units=km Length=0.00754227 bus1=udm32098.1.2 bus2=p1ulv19324.1.2 switch=n enabled=y phases=2 Linecode=1P_UG_AL_1/0_Brenau_0_416_0_2_2

New Line.l(r:udm32098-udm32099) Units=km Length=0.00928751 bus1=udm32099.1.2 bus2=udm32098.1.2 switch=n enabled=y phases=2 Linecode=1P_UG_AL_1/0_Brenau_0_416_0_2_2

New Line.l(r:udm32099-udt9081lv) Units=km Length=0.00929749 bus1=udt9081lv.1.2 bus2=udm32099.1.2 switch=n enabled=y phases=2 Linecode=1P_UG_AL_1/0_Brenau_0_416_0_2_2

New Line.l(r:p1ulv47579-udm32100) Units=km Length=0.009155460000000002 bus1=udm32100.1.2 bus2=p1ulv47579.1.2 switch=n enabled=y phases=2 Linecode=1P_UG_AL_1/0_Brenau_0_416_0_2_2

New Line.l(r:udm32100-udt9081lv) Units=km Length=0.018585 bus1=udt9081lv.1.2 bus2=udm32100.1.2 switch=n enabled=y phases=2 Linecode=1P_UG_AL_1/0_Brenau_0_416_0_2_2

New Line.l(r:p1ulv19326-udt9082lv) Units=km Length=0.00994085 bus1=udt9082lv.1.2 bus2=p1ulv19326.1.2 switch=n enabled=y phases=2 Linecode=1P_UG_AL_1/0_Brenau_0_416_0_2_2

New Line.l(r:p1ulv45994-udm32102) Units=km Length=0.0113646 bus1=udm32102.1.2 bus2=p1ulv45994.1.2 switch=n enabled=y phases=2 Linecode=1P_UG_AL_1/0_Brenau_0_416_0_2_2

New Line.l(r:udm32102-udt9082lv) Units=km Length=0.0189015 bus1=udt9082lv.1.2 bus2=udm32102.1.2 switch=n enabled=y phases=2 Linecode=1P_UG_AL_1/0_Brenau_0_416_0_2_2

New Line.l(r:p1ulv48867-udm32103) Units=km Length=0.0116164 bus1=udm32103.1.2 bus2=p1ulv48867.1.2 switch=n enabled=y phases=2 Linecode=1P_UG_AL_1/0_Brenau_0_416_0_2_2

New Line.l(r:udm32103-udt9082lv) Units=km Length=0.00945601 bus1=udt9082lv.1.2 bus2=udm32103.1.2 switch=n enabled=y phases=2 Linecode=1P_UG_AL_1/0_Brenau_0_416_0_2_2

New Line.l(r:p1ulv37990-udm32106) Units=km Length=0.017903 bus1=udm32106.1.2 bus2=p1ulv37990.1.2 switch=n enabled=y phases=2 Linecode=1P_UG_AL_1/0_Brenau_0_416_0_2_2

New Line.l(r:p1ulv40913-udm32106) Units=km Length=0.0144813 bus1=udm32106.1.2 bus2=p1ulv40913.1.2 switch=n enabled=y phases=2 Linecode=1P_UG_AL_1/0_Brenau_0_416_0_2_2

New Line.l(r:p1ulv44555-udm32108) Units=km Length=0.0132431 bus1=udm32108.1.2 bus2=p1ulv44555.1.2 switch=n enabled=y phases=2 Linecode=1P_UG_AL_1/0_Brenau_0_416_0_2_2

New Line.l(r:udm32106-udm32108) Units=km Length=0.009274030000000003 bus1=udm32106.1.2 bus2=udm32108.1.2 switch=n enabled=y phases=2 Linecode=1P_UG_AL_1/0_Brenau_0_416_0_2_2

New Line.l(r:udm32106-udt9083lv) Units=km Length=0.00927459 bus1=udt9083lv.1.2 bus2=udm32106.1.2 switch=n enabled=y phases=2 Linecode=1P_UG_AL_2/0_Converse_0_416_0_2_2

New Line.l(r:p1ulv47191-udm32110) Units=km Length=0.00824721 bus1=udm32110.1.2 bus2=p1ulv47191.1.2 switch=n enabled=y phases=2 Linecode=1P_UG_AL_1/0_Brenau_0_416_0_2_2

New Line.l(r:p1ulv19327-udm32104) Units=km Length=0.0156589 bus1=udm32104.1.2 bus2=p1ulv19327.1.2 switch=n enabled=y phases=2 Linecode=1P_UG_AL_1/0_Brenau_0_416_0_2_2

New Line.l(r:p1ulv46139-udm32104) Units=km Length=0.0071739 bus1=udm32104.1.2 bus2=p1ulv46139.1.2 switch=n enabled=y phases=2 Linecode=1P_UG_AL_1/0_Brenau_0_416_0_2_2

New Line.l(r:p1ulv19329-udm32105) Units=km Length=0.0120326 bus1=udm32105.1.2 bus2=p1ulv19329.1.2 switch=n enabled=y phases=2 Linecode=1P_UG_AL_1/0_Brenau_0_416_0_2_2

New Line.l(r:udm32104-udm32105) Units=km Length=0.00995158 bus1=udm32104.1.2 bus2=udm32105.1.2 switch=n enabled=y phases=2 Linecode=1P_UG_AL_1/0_Brenau_0_416_0_2_2

New Line.l(r:udm32104-udm32110) Units=km Length=0.0484134 bus1=udm32110.1.2 bus2=udm32104.1.2 switch=n enabled=y phases=2 Linecode=1P_UG_AL_2/0_Converse_0_416_0_2_2

New Line.l(r:udm32110-udt9083lv) Units=km Length=0.00928402 bus1=udt9083lv.1.2 bus2=udm32110.1.2 switch=n enabled=y phases=2 Linecode=1P_UG_AL_4/0_Sweetbriar_0_416_0_2_2

New Line.l(r:p1ulv19331-udt9084lv) Units=km Length=0.017530200000000003 bus1=udt9084lv.1.2 bus2=p1ulv19331.1.2 switch=n enabled=y phases=2 Linecode=1P_UG_AL_1/0_Brenau_0_416_0_2_2

New Line.l(r:p1ulv34464-udm32115) Units=km Length=0.0166443 bus1=udm32115.1.2 bus2=p1ulv34464.1.2 switch=n enabled=y phases=2 Linecode=1P_OH_AL_2/0_Rucina_0_416_0_2_2

New Line.l(r:p1ulv26775-udm32112) Units=km Length=0.0181537 bus1=udm32112.1.2 bus2=p1ulv26775.1.2 switch=n enabled=y phases=2 Linecode=1P_OH_AL_2/0_Rucina_0_416_0_2_2

New Line.l(r:p1ulv31245-udm32112) Units=km Length=0.016289 bus1=udm32112.1.2 bus2=p1ulv31245.1.2 switch=n enabled=y phases=2 Linecode=1P_OH_AL_2/0_Rucina_0_416_0_2_2

New Line.l(r:udm32112-udm32115) Units=km Length=0.0157403 bus1=udm32115.1.2 bus2=udm32112.1.2 switch=n enabled=y phases=2 Linecode=1P_OH_AL_2/0_Rucina_0_416_0_2_2

New Line.l(r:udm32115-udt9084lv) Units=km Length=0.0157299 bus1=udt9084lv.1.2 bus2=udm32115.1.2 switch=n enabled=y phases=2 Linecode=1P_OH_AL_2/0_Rucina_0_416_0_2_2

New Line.l(r:p1ulv46203-udm32117) Units=km Length=0.0172107 bus1=udm32117.1.2 bus2=p1ulv46203.1.2 switch=n enabled=y phases=2 Linecode=1P_OH_AL_2/0_Rucina_0_416_0_2_2

New Line.l(r:p1ulv28209-udm32113) Units=km Length=0.0197992 bus1=udm32113.1.2 bus2=p1ulv28209.1.2 switch=n enabled=y phases=2 Linecode=1P_OH_AL_2/0_Rucina_0_416_0_2_2

New Line.l(r:p1ulv41126-udm32113) Units=km Length=0.0183651 bus1=udm32113.1.2 bus2=p1ulv41126.1.2 switch=n enabled=y phases=2 Linecode=1P_OH_AL_2/0_Rucina_0_416_0_2_2

New Line.l(r:udm32113-udm32117) Units=km Length=0.0183436 bus1=udm32117.1.2 bus2=udm32113.1.2 switch=n enabled=y phases=2 Linecode=1P_OH_AL_2/0_Rucina_0_416_0_2_2

New Line.l(r:udm32117-udt9084lv) Units=km Length=0.0183536 bus1=udt9084lv.1.2 bus2=udm32117.1.2 switch=n enabled=y phases=2 Linecode=1P_OH_AL_2/0_Rucina_0_416_0_2_2

New Line.l(r:p1ulv19333-udt9086lv) Units=km Length=0.0154051 bus1=udt9086lv.1.2 bus2=p1ulv19333.1.2 switch=n enabled=y phases=2 Linecode=1P_OH_AL_2/0_Rucina_0_416_0_2_2

New Line.l(r:p1ulv19335-udm32120) Units=km Length=0.0139749 bus1=udm32120.1.2 bus2=p1ulv19335.1.2 switch=n enabled=y phases=2 Linecode=1P_OH_AL_2/0_Rucina_0_416_0_2_2

New Line.l(r:udm32120-udt9086lv) Units=km Length=0.0184426 bus1=udt9086lv.1.2 bus2=udm32120.1.2 switch=n enabled=y phases=2 Linecode=1P_OH_AL_2/0_Rucina_0_416_0_2_2

New Line.l(r:p1ulv33249-udm32121) Units=km Length=0.0125538 bus1=udm32121.1.2 bus2=p1ulv33249.1.2 switch=n enabled=y phases=2 Linecode=1P_OH_AL_2/0_Rucina_0_416_0_2_2
