New Load.load_p1ulv3064 conn=wye bus1=p1ulv3064.1.2 kV=0.2080002494301389 Vminpu=0.8 Vmaxpu=1.2 model=1 kW=13.0701 kvar=1.131048923251042 Phases=2

New Load.load_p1ulv3065 conn=wye bus1=p1ulv3065.1.2 kV=0.2080002494301389 Vminpu=0.8 Vmaxpu=1.2 model=1 kW=12.64 kvar=1.0410391316499712 Phases=2

New Load.load_p1ulv3066 conn=wye bus1=p1ulv3066.1.2 kV=0.2080002494301389 Vminpu=0.8 Vmaxpu=1.2 model=1 kW=11.64 kvar=0.8406709773712032 Phases=2

New Load.load_p1ulv3067 conn=wye bus1=p1ulv3067.1.2 kV=0.2080002494301389 Vminpu=0.8 Vmaxpu=1.2 model=1 kW=13.4801 kvar=1.2111704107187142 Phases=2

New Load.load_p1ulv3068 conn=wye bus1=p1ulv3068.1.2 kV=0.2080002494301389 Vminpu=0.8 Vmaxpu=1.2 model=1 kW=11.74 kvar=0.8609768434346036 Phases=2

New Load.load_p1ulv3069 conn=wye bus1=p1ulv3069.1.2 kV=0.2080002494301389 Vminpu=0.8 Vmaxpu=1.2 model=1 kW=12.58 kvar=1.0288870420985081 Phases=2

New Load.load_p1ulv3070 conn=wye bus1=p1ulv3070.1.2 kV=0.2080002494301389 Vminpu=0.8 Vmaxpu=1.2 model=1 kW=14.0301 kvar=1.3294001873557917 Phases=2

New Load.load_p1ulv3071 conn=wye bus1=p1ulv3071.1.2 kV=0.2080002494301389 Vminpu=0.8 Vmaxpu=1.2 model=1 kW=11.49 kvar=0.8102121782761024 Phases=2

New Load.load_p1ulv3072 conn=wye bus1=p1ulv3072.1.2 kV=0.2080002494301389 Vminpu=0.8 Vmaxpu=1.2 model=1 kW=4.61005 kvar=0.9409239980998833 Phases=2

New Load.load_p1ulv3073 conn=wye bus1=p1ulv3073.1.2 kV=0.2080002494301389 Vminpu=0.8 Vmaxpu=1.2 model=1 kW=19.29 kvar=0.8711297764663039 Phases=2

New Load.load_p1ulv3074 conn=wye bus1=p1ulv3074.1.2 kV=0.2080002494301389 Vminpu=0.8 Vmaxpu=1.2 model=1 kW=5.59006 kvar=1.1292468671581726 Phases=2

New Load.load_p1ulv3075 conn=wye bus1=p1ulv3075.1.2 kV=0.2080002494301389 Vminpu=0.8 Vmaxpu=1.2 model=1 kW=20.2701 kvar=1.0701292944742342 Phases=2

New Load.load_p1ulv3076 conn=wye bus1=p1ulv3076.1.2 kV=0.2080002494301389 Vminpu=0.8 Vmaxpu=1.2 model=1 kW=11.92 kvar=0.8998375215150975 Phases=2

New Load.load_p1ulv3077 conn=wye bus1=p1ulv3077.1.2 kV=0.2080002494301389 Vminpu=0.8 Vmaxpu=1.2 model=1 kW=11.7 kvar=0.8506543699954566 Phases=2

New Load.load_p1ulv3078 conn=wye bus1=p1ulv3078.1.2 kV=0.2080002494301389 Vminpu=0.8 Vmaxpu=1.2 model=1 kW=11.85 kvar=0.8810345938741143 Phases=2

New Load.load_p1ulv3079 conn=wye bus1=p1ulv3079.1.2 kV=0.2080002494301389 Vminpu=0.8 Vmaxpu=1.2 model=1 kW=13.1801 kvar=1.1504099629613984 Phases=2

New Load.load_p1ulv3080 conn=wye bus1=p1ulv3080.1.2 kV=0.2080002494301389 Vminpu=0.8 Vmaxpu=1.2 model=1 kW=20.14 kvar=1.0410391316499712 Phases=2

New Load.load_p1ulv3081 conn=wye bus1=p1ulv3081.1.2 kV=0.2080002494301389 Vminpu=0.8 Vmaxpu=1.2 model=1 kW=12.1 kvar=0.9292551513348608 Phases=2

New Load.load_p1ulv3082 conn=wye bus1=p1ulv3082.1.2 kV=0.2080002494301389 Vminpu=0.8 Vmaxpu=1.2 model=1 kW=13.1601 kvar=1.149324202708102 Phases=2

New Load.load_p1ulv3083 conn=wye bus1=p1ulv3080.1.2 kV=0.2080002494301389 Vminpu=0.8 Vmaxpu=1.2 model=1 kW=19.8201 kvar=0.9787528971889325 Phases=2

New Load.load_p1ulv3084 conn=wye bus1=p1ulv3084.1.2 kV=0.2080002494301389 Vminpu=0.8 Vmaxpu=1.2 model=1 kW=12.71 kvar=1.0606687900945995 Phases=2

New Load.load_p1ulv3085 conn=wye bus1=p1ulv3085.1.2 kV=0.2080002494301389 Vminpu=0.8 Vmaxpu=1.2 model=1 kW=12.4001 kvar=1.0001138028631646 Phases=2

New Load.load_p1ulv3086 conn=wye bus1=p1ulv3086.1.2 kV=0.2080002494301389 Vminpu=0.8 Vmaxpu=1.2 model=1 kW=3.21003 kvar=0.6501428670480555 Phases=2

New Load.load_p1ulv3087 conn=wye bus1=p1ulv3087.1.2 kV=0.2080002494301389 Vminpu=0.8 Vmaxpu=1.2 model=1 kW=12.78 kvar=1.069394007270052 Phases=2

New Load.load_p1ulv3088 conn=wye bus1=p1ulv3088.1.2 kV=0.2080002494301389 Vminpu=0.8 Vmaxpu=1.2 model=1 kW=12.7401 kvar=1.0612926142357433 Phases=2

New Load.load_p1ulv3089 conn=wye bus1=p1ulv3089.1.2 kV=0.2080002494301389 Vminpu=0.8 Vmaxpu=1.2 model=1 kW=6.45006 kvar=1.3097405446089656 Phases=2

New Load.load_p1ulv3090 conn=wye bus1=p1ulv3090.1.2 kV=0.2080002494301389 Vminpu=0.8 Vmaxpu=1.2 model=1 kW=19.5701 kvar=0.9303767534230621 Phases=2

New Load.load_p1ulv3091 conn=wye bus1=p1ulv3091.1.2 kV=0.2080002494301389 Vminpu=0.8 Vmaxpu=1.2 model=1 kW=19.6 kvar=0.9292551513348608 Phases=2

New Load.load_p1ulv3092 conn=wye bus1=p1ulv3091.1.2 kV=0.2080002494301389 Vminpu=0.8 Vmaxpu=1.2 model=1 kW=19.41 kvar=0.890871270441145 Phases=2

New Load.load_p1ulv3093 conn=wye bus1=p1ulv3093.1.2 kV=0.2080002494301389 Vminpu=0.8 Vmaxpu=1.2 model=1 kW=13.4401 kvar=1.2092851802361448 Phases=2

New Load.load_p1ulv3094 conn=wye bus1=p1ulv3094.1.2 kV=0.2080002494301389 Vminpu=0.8 Vmaxpu=1.2 model=1 kW=5.39005 kvar=1.088842888327837 Phases=2

New Load.load_p1ulv3095 conn=wye bus1=p1ulv3095.1.2 kV=0.2080002494301389 Vminpu=0.8 Vmaxpu=1.2 model=1 kW=12.1101 kvar=0.9409239980998833 Phases=2

New Load.load_p1ulv3096 conn=wye bus1=p1ulv3096.1.2 kV=0.2080002494301389 Vminpu=0.8 Vmaxpu=1.2 model=1 kW=20.08 kvar=1.0288870420985081 Phases=2

New Load.load_p1ulv3097 conn=wye bus1=p1ulv3097.1.2 kV=0.2080002494301389 Vminpu=0.8 Vmaxpu=1.2 model=1 kW=5.08005 kvar=1.0288870420985081 Phases=2

New Load.load_p1ulv3098 conn=wye bus1=p1ulv3097.1.2 kV=0.2080002494301389 Vminpu=0.8 Vmaxpu=1.2 model=1 kW=5.20005 kvar=1.061344635376904 Phases=2

New Load.load_p1ulv3099 conn=wye bus1=p1ulv3099.1.2 kV=0.2080002494301389 Vminpu=0.8 Vmaxpu=1.2 model=1 kW=19.9001 kvar=1.0001138028631646 Phases=2

New Load.load_p1ulv3100 conn=wye bus1=p1ulv3100.1.2 kV=0.2080002494301389 Vminpu=0.8 Vmaxpu=1.2 model=1 kW=11.85 kvar=0.8810345938741143 Phases=2

New Load.load_p1ulv3101 conn=wye bus1=p1ulv3100.1.2 kV=0.2080002494301389 Vminpu=0.8 Vmaxpu=1.2 model=1 kW=11.63 kvar=0.840798942398307 Phases=2

New Load.load_p1ulv3102 conn=wye bus1=p1ulv3102.1.2 kV=0.2080002494301389 Vminpu=0.8 Vmaxpu=1.2 model=1 kW=19.47 kvar=0.9100165868800613 Phases=2

New Load.load_p1ulv3103 conn=wye bus1=p1ulv3102.1.2 kV=0.2080002494301389 Vminpu=0.8 Vmaxpu=1.2 model=1 kW=20.0401 kvar=1.0207856490641993 Phases=2

New Load.load_p1ulv3104 conn=wye bus1=p1ulv3104.1.2 kV=0.2080002494301389 Vminpu=0.8 Vmaxpu=1.2 model=1 kW=12.87 kvar=1.0904351605376348 Phases=2

New Load.load_p1ulv3105 conn=wye bus1=p1ulv3105.1.2 kV=0.2080002494301389 Vminpu=0.8 Vmaxpu=1.2 model=1 kW=19.42 kvar=0.8998375215150975 Phases=2

New Load.load_p1ulv3106 conn=wye bus1=p1ulv3105.1.2 kV=0.2080002494301389 Vminpu=0.8 Vmaxpu=1.2 model=1 kW=19.6801 kvar=0.9503246847001716 Phases=2

New Load.load_p1ulv3107 conn=wye bus1=p1ulv3107.1.2 kV=0.2080002494301389 Vminpu=0.8 Vmaxpu=1.2 model=1 kW=11.48 kvar=0.8102617463034154 Phases=2

New Load.load_p1ulv3108 conn=wye bus1=p1ulv3108.1.2 kV=0.2080002494301389 Vminpu=0.8 Vmaxpu=1.2 model=1 kW=13.6301 kvar=1.2415506345973724 Phases=2

New Load.load_p1ulv3109 conn=wye bus1=p1ulv3109.1.2 kV=0.2080002494301389 Vminpu=0.8 Vmaxpu=1.2 model=1 kW=19.87 kvar=0.9889058302206326 Phases=2

New Load.load_p1ulv3110 conn=wye bus1=p1ulv3109.1.2 kV=0.2080002494301389 Vminpu=0.8 Vmaxpu=1.2 model=1 kW=19.09 kvar=0.8305180443395029 Phases=2

New Load.load_p1ulv3111 conn=wye bus1=p1ulv3111.1.2 kV=0.2080002494301389 Vminpu=0.8 Vmaxpu=1.2 model=1 kW=13.1601 kvar=1.149324202708102 Phases=2

New Load.load_p1ulv3112 conn=wye bus1=p1ulv3112.1.2 kV=0.2080002494301389 Vminpu=0.8 Vmaxpu=1.2 model=1 kW=12.58 kvar=1.0288870420985081 Phases=2

New Load.load_p1ulv3113 conn=wye bus1=p1ulv3113.1.2 kV=0.2080002494301389 Vminpu=0.8 Vmaxpu=1.2 model=1 kW=12.7301 kvar=1.059267265977166 Phases=2

New Load.load_p1ulv3114 conn=wye bus1=p1ulv3114.1.2 kV=0.2080002494301389 Vminpu=0.8 Vmaxpu=1.2 model=1 kW=10.15 kvar=0.5394965717823037 Phases=2

New Load.load_p1ulv3115 conn=wye bus1=p1ulv3115.1.2 kV=0.2080002494301389 Vminpu=0.8 Vmaxpu=1.2 model=1 kW=12.7001 kvar=1.061344635376904 Phases=2

New Load.load_p1ulv3116 conn=wye bus1=p1ulv3116.1.2 kV=0.2080002494301389 Vminpu=0.8 Vmaxpu=1.2 model=1 kW=11.34 kvar=0.7797533791810017 Phases=2

New Load.load_p1ulv3117 conn=wye bus1=p1ulv3117.1.2 kV=0.2080002494301389 Vminpu=0.8 Vmaxpu=1.2 model=1 kW=10.85 kvar=0.6802526048837334 Phases=2

New Load.load_p1ulv3118 conn=wye bus1=p1ulv3118.1.2 kV=0.2080002494301389 Vminpu=0.8 Vmaxpu=1.2 model=1 kW=15.4901 kvar=1.6182694613892477 Phases=2

New Load.load_p1ulv3119 conn=wye bus1=p1ulv3119.1.2 kV=0.2080002494301389 Vminpu=0.8 Vmaxpu=1.2 model=1 kW=11.1 kvar=0.7291334744808246 Phases=2

New Load.load_p1ulv3120 conn=wye bus1=p1ulv3120.1.2 kV=0.2080002494301389 Vminpu=0.8 Vmaxpu=1.2 model=1 kW=3.95004 kvar=0.8000206635310265 Phases=2

New Load.load_p1ulv3121 conn=wye bus1=p1ulv3121.1.2 kV=0.2080002494301389 Vminpu=0.8 Vmaxpu=1.2 model=1 kW=3.60004 kvar=0.7291334744808246 Phases=2

New Load.load_p1ulv3122 conn=wye bus1=p1ulv3122.1.2 kV=0.2080002494301389 Vminpu=0.8 Vmaxpu=1.2 model=1 kW=19.26 kvar=0.8605698013918458 Phases=2

New Load.load_p1ulv3123 conn=wye bus1=p1ulv3123.1.2 kV=0.2080002494301389 Vminpu=0.8 Vmaxpu=1.2 model=1 kW=5.33005 kvar=1.0795207485629381 Phases=2

New Load.load_p1ulv3124 conn=wye bus1=p1ulv3124.1.2 kV=0.2080002494301389 Vminpu=0.8 Vmaxpu=1.2 model=1 kW=11.62 kvar=0.8409115972996914 Phases=2

New Load.load_p1ulv3125 conn=wye bus1=p1ulv3125.1.2 kV=0.2080002494301389 Vminpu=0.8 Vmaxpu=1.2 model=1 kW=11.85 kvar=0.8810345938741143 Phases=2

New Load.load_p1ulv3126 conn=wye bus1=p1ulv3126.1.2 kV=0.2080002494301389 Vminpu=0.8 Vmaxpu=1.2 model=1 kW=20.9601 kvar=1.2102418008983036 Phases=2

New Load.load_p1ulv3127 conn=wye bus1=p1ulv3127.1.2 kV=0.2080002494301389 Vminpu=0.8 Vmaxpu=1.2 model=1 kW=5.79006 kvar=1.1787479841412536 Phases=2

New Load.load_p1ulv3128 conn=wye bus1=p1ulv3128.1.2 kV=0.2080002494301389 Vminpu=0.8 Vmaxpu=1.2 model=1 kW=14.0201 kvar=1.3205412420301414 Phases=2

New Load.load_p1ulv3129 conn=wye bus1=p1ulv3129.1.2 kV=0.2080002494301389 Vminpu=0.8 Vmaxpu=1.2 model=1 kW=20.23 kvar=1.059267265977166 Phases=2

New Load.load_p1ulv3130 conn=wye bus1=p1ulv3130.1.2 kV=0.2080002494301389 Vminpu=0.8 Vmaxpu=1.2 model=1 kW=4.41004 kvar=0.890871270441145 Phases=2

New Load.load_p1ulv3131 conn=wye bus1=p1ulv3131.1.2 kV=0.2080002494301389 Vminpu=0.8 Vmaxpu=1.2 model=1 kW=10.78 kvar=0.6694632252334703 Phases=2

New Load.load_p1ulv3132 conn=wye bus1=p1ulv3131.1.2 kV=0.2080002494301389 Vminpu=0.8 Vmaxpu=1.2 model=1 kW=11.85 kvar=0.8810345938741143 Phases=2

New Load.load_p1ulv3133 conn=wye bus1=p1ulv3133.1.2 kV=0.2080002494301389 Vminpu=0.8 Vmaxpu=1.2 model=1 kW=20.6701 kvar=1.1513547893144422 Phases=2

New Load.load_p1ulv3134 conn=wye bus1=p1ulv3134.1.2 kV=0.2080002494301389 Vminpu=0.8 Vmaxpu=1.2 model=1 kW=7.070070000000001 kvar=1.4393340932974013 Phases=2

New Load.load_p1ulv3135 conn=wye bus1=p1ulv3135.1.2 kV=0.2080002494301389 Vminpu=0.8 Vmaxpu=1.2 model=1 kW=18.2 kvar=0.6497938057886328 Phases=2

New Load.load_p1ulv3136 conn=wye bus1=p1ulv3136.1.2 kV=0.2080002494301389 Vminpu=0.8 Vmaxpu=1.2 model=1 kW=11.1 kvar=0.7291334744808246 Phases=2

New Load.load_p1ulv3137 conn=wye bus1=p1ulv3137.1.2 kV=0.2080002494301389 Vminpu=0.8 Vmaxpu=1.2 model=1 kW=19.23 kvar=0.8589462568282636 Phases=2

New Load.load_p1ulv3138 conn=wye bus1=p1ulv3137.1.2 kV=0.2080002494301389 Vminpu=0.8 Vmaxpu=1.2 model=1 kW=19.69 kvar=0.9498984600139976 Phases=2

New Load.load_p1ulv3139 conn=wye bus1=p1ulv3139.1.2 kV=0.2080002494301389 Vminpu=0.8 Vmaxpu=1.2 model=1 kW=3.72004 kvar=0.7495268825292292 Phases=2

New Load.load_p1ulv3140 conn=wye bus1=p1ulv3140.1.2 kV=0.2080002494301389 Vminpu=0.8 Vmaxpu=1.2 model=1 kW=11.1 kvar=0.7291334744808246 Phases=2

New Load.load_p1ulv3141 conn=wye bus1=p1ulv3141.1.2 kV=0.2080002494301389 Vminpu=0.8 Vmaxpu=1.2 model=1 kW=3.58004 kvar=0.7306960987749602 Phases=2

New Load.load_p1ulv3142 conn=wye bus1=p1ulv3142.1.2 kV=0.2080002494301389 Vminpu=0.8 Vmaxpu=1.2 model=1 kW=11.52 kvar=0.8205013197951115 Phases=2

New Load.load_p1ulv3143 conn=wye bus1=p1ulv3143.1.2 kV=0.2080002494301389 Vminpu=0.8 Vmaxpu=1.2 model=1 kW=11.96 kvar=0.910306540815263 Phases=2

New Load.load_p1ulv3144 conn=wye bus1=p1ulv3144.1.2 kV=0.2080002494301389 Vminpu=0.8 Vmaxpu=1.2 model=1 kW=20.3201 kvar=1.0802822275059345 Phases=2

New Load.load_p1ulv3145 conn=wye bus1=p1ulv3145.1.2 kV=0.2080002494301389 Vminpu=0.8 Vmaxpu=1.2 model=1 kW=5.44005 kvar=1.0989433780109366 Phases=2

New Load.load_p1ulv3146 conn=wye bus1=p1ulv3146.1.2 kV=0.2080002494301389 Vminpu=0.8 Vmaxpu=1.2 model=1 kW=11.64 kvar=0.8406709773712032 Phases=2

New Load.load_p1ulv3147 conn=wye bus1=p1ulv3147.1.2 kV=0.2080002494301389 Vminpu=0.8 Vmaxpu=1.2 model=1 kW=19.4 kvar=0.8911613351670004 Phases=2

New Load.load_p1ulv3148 conn=wye bus1=p1ulv3148.1.2 kV=0.2080002494301389 Vminpu=0.8 Vmaxpu=1.2 model=1 kW=6.03006 kvar=1.2212971520116003 Phases=2

New Load.load_p1ulv4028 conn=wye bus1=p1ulv4028.1.2 kV=0.2080002494301389 Vminpu=0.8 Vmaxpu=1.2 model=1 kW=17.81 kvar=0.570600928141371 Phases=2

New Load.load_p1ulv4029 conn=wye bus1=p1ulv4029.1.2 kV=0.2080002494301389 Vminpu=0.8 Vmaxpu=1.2 model=1 kW=9.24 kvar=0.3496676317043298 Phases=2

New Load.load_p1ulv4030 conn=wye bus1=p1ulv4030.1.2 kV=0.2080002494301389 Vminpu=0.8 Vmaxpu=1.2 model=1 kW=10.34 kvar=0.5796580042133189 Phases=2

New Load.load_p1ulv4031 conn=wye bus1=p1ulv4031.1.2 kV=0.2080002494301389 Vminpu=0.8 Vmaxpu=1.2 model=1 kW=16.85 kvar=0.38047547394451825 Phases=2

New Load.load_p1ulv4032 conn=wye bus1=p1ulv4032.1.2 kV=0.2080002494301389 Vminpu=0.8 Vmaxpu=1.2 model=1 kW=10.56 kvar=0.6197626431693976 Phases=2

New Load.load_p1ulv4033 conn=wye bus1=p1ulv4033.1.2 kV=0.2080002494301389 Vminpu=0.8 Vmaxpu=1.2 model=1 kW=10.26 kvar=0.5604479951096709 Phases=2

New Load.load_p1ulv4034 conn=wye bus1=p1ulv4034.1.2 kV=0.2080002494301389 Vminpu=0.8 Vmaxpu=1.2 model=1 kW=10.62 kvar=0.6302766165192346 Phases=2

New Load.load_p1ulv4035 conn=wye bus1=p1ulv4035.1.2 kV=0.2080002494301389 Vminpu=0.8 Vmaxpu=1.2 model=1 kW=2.46002 kvar=0.49952836633286324 Phases=2

New Load.load_p1ulv4036 conn=wye bus1=p1ulv4036.1.2 kV=0.2080002494301389 Vminpu=0.8 Vmaxpu=1.2 model=1 kW=9.93 kvar=0.48960906739811333 Phases=2

New Load.load_p1ulv4037 conn=wye bus1=p1ulv4037.1.2 kV=0.2080002494301389 Vminpu=0.8 Vmaxpu=1.2 model=1 kW=9.32 kvar=0.3695708235271005 Phases=2

New Load.load_p1ulv4038 conn=wye bus1=p1ulv4038.1.2 kV=0.2080002494301389 Vminpu=0.8 Vmaxpu=1.2 model=1 kW=9.81 kvar=0.4702768914874764 Phases=2

New Load.load_p1ulv4039 conn=wye bus1=p1ulv4039.1.2 kV=0.2080002494301389 Vminpu=0.8 Vmaxpu=1.2 model=1 kW=9.19 kvar=0.33961982674506697 Phases=2

New Load.load_p1ulv4040 conn=wye bus1=p1ulv4040.1.2 kV=0.2080002494301389 Vminpu=0.8 Vmaxpu=1.2 model=1 kW=10.33 kvar=0.5702045040817287 Phases=2

New Load.load_p1ulv4041 conn=wye bus1=p1ulv4041.1.2 kV=0.2080002494301389 Vminpu=0.8 Vmaxpu=1.2 model=1 kW=2.90003 kvar=0.5903918986071232 Phases=2

New Load.load_p1ulv4042 conn=wye bus1=p1ulv4042.1.2 kV=0.2080002494301389 Vminpu=0.8 Vmaxpu=1.2 model=1 kW=10.42 kvar=0.5898746577868357 Phases=2

New Load.load_p1ulv4043 conn=wye bus1=p1ulv4043.1.2 kV=0.2080002494301389 Vminpu=0.8 Vmaxpu=1.2 model=1 kW=10.08 kvar=0.5198336154266855 Phases=2

New Load.load_p1ulv4044 conn=wye bus1=p1ulv4044.1.2 kV=0.2080002494301389 Vminpu=0.8 Vmaxpu=1.2 model=1 kW=10.29 kvar=0.569452865461029 Phases=2

New Load.load_p1ulv4045 conn=wye bus1=p1ulv4045.1.2 kV=0.2080002494301389 Vminpu=0.8 Vmaxpu=1.2 model=1 kW=9.91 kvar=0.489375433301163 Phases=2

New Load.load_p1ulv4046 conn=wye bus1=p1ulv4046.1.2 kV=0.2080002494301389 Vminpu=0.8 Vmaxpu=1.2 model=1 kW=9.81 kvar=0.4702768914874764 Phases=2

New Load.load_p1ulv4047 conn=wye bus1=p1ulv4047.1.2 kV=0.2080002494301389 Vminpu=0.8 Vmaxpu=1.2 model=1 kW=10.25 kvar=0.5598547025122315 Phases=2

New Load.load_p1ulv4048 conn=wye bus1=p1ulv4048.1.2 kV=0.2080002494301389 Vminpu=0.8 Vmaxpu=1.2 model=1 kW=10.3 kvar=0.5700337678771953 Phases=2

New Load.load_p1ulv4049 conn=wye bus1=p1ulv4049.1.2 kV=0.2080002494301389 Vminpu=0.8 Vmaxpu=1.2 model=1 kW=10.05 kvar=0.5204681994500374 Phases=2

New Load.load_p1ulv4050 conn=wye bus1=p1ulv4050.1.2 kV=0.2080002494301389 Vminpu=0.8 Vmaxpu=1.2 model=1 kW=9.95 kvar=0.500055880917707 Phases=2

New Load.load_p1ulv4051 conn=wye bus1=p1ulv4051.1.2 kV=0.2080002494301389 Vminpu=0.8 Vmaxpu=1.2 model=1 kW=9.93 kvar=0.48960906739811333 Phases=2

New Load.load_p1ulv4052 conn=wye bus1=p1ulv4052.1.2 kV=0.2080002494301389 Vminpu=0.8 Vmaxpu=1.2 model=1 kW=14.0801 kvar=1.3395792527207553 Phases=2

New Load.load_p1ulv4053 conn=wye bus1=p1ulv4053.1.2 kV=0.2080002494301389 Vminpu=0.8 Vmaxpu=1.2 model=1 kW=20.7201 kvar=1.1585113559957074 Phases=2

New Load.load_p1ulv4054 conn=wye bus1=p1ulv4054.1.2 kV=0.2080002494301389 Vminpu=0.8 Vmaxpu=1.2 model=1 kW=20.9401 kvar=1.2092851802361448 Phases=2

New Load.load_p1ulv4055 conn=wye bus1=p1ulv4055.1.2 kV=0.2080002494301389 Vminpu=0.8 Vmaxpu=1.2 model=1 kW=37.4301 kvar=1.5087400626168963 Phases=2

New Load.load_p1ulv4056 conn=wye bus1=p1ulv4056.1.2 kV=0.2080002494301389 Vminpu=0.8 Vmaxpu=1.2 model=1 kW=21.2301 kvar=1.2585331351018492 Phases=2

New Load.load_p1ulv4057 conn=wye bus1=p1ulv4057.1.2 kV=0.2080002494301389 Vminpu=0.8 Vmaxpu=1.2 model=1 kW=21.4401 kvar=1.3110758338857833 Phases=2

New Load.load_p1ulv4058 conn=wye bus1=p1ulv4058.1.2 kV=0.2080002494301389 Vminpu=0.8 Vmaxpu=1.2 model=1 kW=28.1401 kvar=1.151151897424806 Phases=2

New Load.load_p1ulv4059 conn=wye bus1=p1ulv4059.1.2 kV=0.2080002494301389 Vminpu=0.8 Vmaxpu=1.2 model=1 kW=13.4801 kvar=1.2111704107187142 Phases=2

New Load.load_p1ulv4060 conn=wye bus1=p1ulv4060.1.2 kV=0.2080002494301389 Vminpu=0.8 Vmaxpu=1.2 model=1 kW=13.5501 kvar=1.2285170803553642 Phases=2

New Load.load_p1ulv4061 conn=wye bus1=p1ulv4061.1.2 kV=0.2080002494301389 Vminpu=0.8 Vmaxpu=1.2 model=1 kW=21.8601 kvar=1.3894030828217663 Phases=2

New Load.load_p1ulv4062 conn=wye bus1=p1ulv4062.1.2 kV=0.2080002494301389 Vminpu=0.8 Vmaxpu=1.2 model=1 kW=20.7101 kvar=1.1594771357398026 Phases=2

New Load.load_p1ulv4063 conn=wye bus1=p1ulv4063.1.2 kV=0.2080002494301389 Vminpu=0.8 Vmaxpu=1.2 model=1 kW=21.0901 kvar=1.2398223763310365 Phases=2

New Load.load_p1ulv4064 conn=wye bus1=p1ulv4064.1.2 kV=0.2080002494301389 Vminpu=0.8 Vmaxpu=1.2 model=1 kW=20.28 kvar=1.069394007270052 Phases=2

New Load.load_p1ulv4065 conn=wye bus1=p1ulv4065.1.2 kV=0.2080002494301389 Vminpu=0.8 Vmaxpu=1.2 model=1 kW=21.2301 kvar=1.271572534701827 Phases=2

New Load.load_p1ulv4066 conn=wye bus1=p1ulv4066.1.2 kV=0.2080002494301389 Vminpu=0.8 Vmaxpu=1.2 model=1 kW=36.1901 kvar=1.2601805070609642 Phases=2

New Load.load_p1ulv4067 conn=wye bus1=p1ulv4067.1.2 kV=0.2080002494301389 Vminpu=0.8 Vmaxpu=1.2 model=1 kW=20.5501 kvar=1.1298884703894267 Phases=2

New Load.load_p1ulv4068 conn=wye bus1=p1ulv4068.1.2 kV=0.2080002494301389 Vminpu=0.8 Vmaxpu=1.2 model=1 kW=20.7101 kvar=1.1594771357398026 Phases=2

New Load.load_p1ulv4069 conn=wye bus1=p1ulv4069.1.2 kV=0.2080002494301389 Vminpu=0.8 Vmaxpu=1.2 model=1 kW=21.3001 kvar=1.2792817455138652 Phases=2

New Load.load_p1ulv4070 conn=wye bus1=p1ulv4070.1.2 kV=0.2080002494301389 Vminpu=0.8 Vmaxpu=1.2 model=1 kW=21.9101 kvar=1.399529824114652 Phases=2

New Load.load_p1ulv4071 conn=wye bus1=p1ulv4071.1.2 kV=0.2080002494301389 Vminpu=0.8 Vmaxpu=1.2 model=1 kW=21.0201 kvar=1.219271803753023 Phases=2

New Load.load_p1ulv4072 conn=wye bus1=p1ulv4072.1.2 kV=0.2080002494301389 Vminpu=0.8 Vmaxpu=1.2 model=1 kW=18.02 kvar=0.6100756371530351 Phases=2

New Load.load_p1ulv4073 conn=wye bus1=p1ulv4073.1.2 kV=0.2080002494301389 Vminpu=0.8 Vmaxpu=1.2 model=1 kW=2.25002 kvar=0.46040600660272657 Phases=2

New Load.load_p1ulv4074 conn=wye bus1=p1ulv4074.1.2 kV=0.2080002494301389 Vminpu=0.8 Vmaxpu=1.2 model=1 kW=9.94 kvar=0.49033690113400924 Phases=2

New Load.load_p1ulv4075 conn=wye bus1=p1ulv4075.1.2 kV=0.2080002494301389 Vminpu=0.8 Vmaxpu=1.2 model=1 kW=9.8 kvar=0.46944046466083733 Phases=2

New Load.load_p1ulv4076 conn=wye bus1=p1ulv4076.1.2 kV=0.2080002494301389 Vminpu=0.8 Vmaxpu=1.2 model=1 kW=17.09 kvar=0.42000226641916955 Phases=2

New Load.load_p1ulv4077 conn=wye bus1=p1ulv4077.1.2 kV=0.2080002494301389 Vminpu=0.8 Vmaxpu=1.2 model=1 kW=2.39002 kvar=0.49029398470315966 Phases=2

New Load.load_p1ulv4078 conn=wye bus1=p1ulv4078.1.2 kV=0.2080002494301389 Vminpu=0.8 Vmaxpu=1.2 model=1 kW=10.08 kvar=0.5198336154266855 Phases=2

New Load.load_p1ulv4079 conn=wye bus1=p1ulv4079.1.2 kV=0.2080002494301389 Vminpu=0.8 Vmaxpu=1.2 model=1 kW=6.56007 kvar=1.3286426350644502 Phases=2

New Load.load_p1ulv4080 conn=wye bus1=p1ulv4080.1.2 kV=0.2080002494301389 Vminpu=0.8 Vmaxpu=1.2 model=1 kW=22.0301 kvar=1.43119084100543 Phases=2

New Load.load_p1ulv4081 conn=wye bus1=p1ulv4081.1.2 kV=0.2080002494301389 Vminpu=0.8 Vmaxpu=1.2 model=1 kW=20.44 kvar=1.1103293013878959 Phases=2

New Load.load_p1ulv4082 conn=wye bus1=p1ulv4082.1.2 kV=0.2080002494301389 Vminpu=0.8 Vmaxpu=1.2 model=1 kW=22.7001 kvar=1.559534361890509 Phases=2

New Load.load_p1ulv4083 conn=wye bus1=p1ulv4083.1.2 kV=0.2080002494301389 Vminpu=0.8 Vmaxpu=1.2 model=1 kW=21.7101 kvar=1.3590228589431081 Phases=2

New Load.load_p1ulv4084 conn=wye bus1=p1ulv4084.1.2 kV=0.2080002494301389 Vminpu=0.8 Vmaxpu=1.2 model=1 kW=20.8401 kvar=1.1889270495062174 Phases=2

New Load.load_p1ulv4085 conn=wye bus1=p1ulv4085.1.2 kV=0.2080002494301389 Vminpu=0.8 Vmaxpu=1.2 model=1 kW=36.7601 kvar=1.3691496002359942 Phases=2

New Load.load_p1ulv4086 conn=wye bus1=p1ulv4086.1.2 kV=0.2080002494301389 Vminpu=0.8 Vmaxpu=1.2 model=1 kW=6.83007 kvar=1.3904745795455744 Phases=2

New Load.load_p1ulv4087 conn=wye bus1=p1ulv4087.1.2 kV=0.2080002494301389 Vminpu=0.8 Vmaxpu=1.2 model=1 kW=22.4701 kvar=1.520766616217112 Phases=2

New Load.load_p1ulv4088 conn=wye bus1=p1ulv4088.1.2 kV=0.2080002494301389 Vminpu=0.8 Vmaxpu=1.2 model=1 kW=5.27005 kvar=1.0701292944742342 Phases=2

New Load.load_p1ulv4089 conn=wye bus1=p1ulv4089.1.2 kV=0.2080002494301389 Vminpu=0.8 Vmaxpu=1.2 model=1 kW=21.1901 kvar=1.2601805070609642 Phases=2

New Load.load_p1ulv4090 conn=wye bus1=p1ulv4090.1.2 kV=0.2080002494301389 Vminpu=0.8 Vmaxpu=1.2 model=1 kW=15.4401 kvar=1.608142720096362 Phases=2

New Load.load_p1ulv4091 conn=wye bus1=p1ulv4091.1.2 kV=0.2080002494301389 Vminpu=0.8 Vmaxpu=1.2 model=1 kW=7.48007 kvar=1.5188929956485966 Phases=2

New Load.load_p1ulv4092 conn=wye bus1=p1ulv4092.1.2 kV=0.2080002494301389 Vminpu=0.8 Vmaxpu=1.2 model=1 kW=22.1901 kvar=1.4600059840647355 Phases=2

New Load.load_p1ulv4093 conn=wye bus1=p1ulv4093.1.2 kV=0.2080002494301389 Vminpu=0.8 Vmaxpu=1.2 model=1 kW=21.3301 kvar=1.2886818900828627 Phases=2

New Load.load_p1ulv4094 conn=wye bus1=p1ulv4094.1.2 kV=0.2080002494301389 Vminpu=0.8 Vmaxpu=1.2 model=1 kW=39.2501 kvar=1.8783108861439968 Phases=2

New Load.load_p1ulv4095 conn=wye bus1=p1ulv4095.1.2 kV=0.2080002494301389 Vminpu=0.8 Vmaxpu=1.2 model=1 kW=22.0401 kvar=1.4295471849696346 Phases=2

New Load.load_p1ulv4096 conn=wye bus1=p1ulv4096.1.2 kV=0.2080002494301389 Vminpu=0.8 Vmaxpu=1.2 model=1 kW=37.4701 kvar=1.520766616217112 Phases=2

New Load.load_p1ulv4097 conn=wye bus1=p1ulv4097.1.2 kV=0.2080002494301389 Vminpu=0.8 Vmaxpu=1.2 model=1 kW=20.9401 kvar=1.2092851802361448 Phases=2

New Load.load_p1ulv4098 conn=wye bus1=p1ulv4098.1.2 kV=0.2080002494301389 Vminpu=0.8 Vmaxpu=1.2 model=1 kW=7.7100800000000005 kvar=1.5696281657820117 Phases=2

New Load.load_p1ulv4099 conn=wye bus1=p1ulv4099.1.2 kV=0.2080002494301389 Vminpu=0.8 Vmaxpu=1.2 model=1 kW=14.0401 kvar=1.3314360004287842 Phases=2

New Load.load_p1ulv4100 conn=wye bus1=p1ulv4100.1.2 kV=0.2080002494301389 Vminpu=0.8 Vmaxpu=1.2 model=1 kW=29.4801 kvar=1.4210117756404663 Phases=2

New Load.load_p1ulv4101 conn=wye bus1=p1ulv4101.1.2 kV=0.2080002494301389 Vminpu=0.8 Vmaxpu=1.2 model=1 kW=14.5901 kvar=1.4397001180013347 Phases=2

New Load.load_p1ulv4102 conn=wye bus1=p1ulv4102.1.2 kV=0.2080002494301389 Vminpu=0.8 Vmaxpu=1.2 model=1 kW=22.0501 kvar=1.4315777715759745 Phases=2

New Load.load_p1ulv4103 conn=wye bus1=p1ulv4103.1.2 kV=0.2080002494301389 Vminpu=0.8 Vmaxpu=1.2 model=1 kW=37.5901 kvar=1.5412314789049433 Phases=2

New Load.load_p1ulv4104 conn=wye bus1=p1ulv4104.1.2 kV=0.2080002494301389 Vminpu=0.8 Vmaxpu=1.2 model=1 kW=21.7101 kvar=1.3590228589431081 Phases=2

New Load.load_p1ulv4105 conn=wye bus1=p1ulv4105.1.2 kV=0.2080002494301389 Vminpu=0.8 Vmaxpu=1.2 model=1 kW=20.9801 kvar=1.2205468409403772 Phases=2

New Load.load_p1ulv4106 conn=wye bus1=p1ulv4106.1.2 kV=0.2080002494301389 Vminpu=0.8 Vmaxpu=1.2 model=1 kW=6.89007 kvar=1.399088385874534 Phases=2

New Load.load_p1ulv4107 conn=wye bus1=p1ulv4107.1.2 kV=0.2080002494301389 Vminpu=0.8 Vmaxpu=1.2 model=1 kW=21.9801 kvar=1.4210117756404663 Phases=2

New Load.load_p1ulv4108 conn=wye bus1=p1ulv4108.1.2 kV=0.2080002494301389 Vminpu=0.8 Vmaxpu=1.2 model=1 kW=6.81007 kvar=1.37927634152888 Phases=2

New Load.load_p1ulv4376 conn=wye bus1=p1ulv4376.1.2 kV=0.2080002494301389 Vminpu=0.8 Vmaxpu=1.2 model=1 kW=13.4501 kvar=1.2113209933091376 Phases=2

New Load.load_p1ulv4377 conn=wye bus1=p1ulv4377.1.2 kV=0.2080002494301389 Vminpu=0.8 Vmaxpu=1.2 model=1 kW=10.85 kvar=0.6802526048837334 Phases=2

New Load.load_p1ulv4379 conn=wye bus1=p1ulv4379.1.2 kV=0.2080002494301389 Vminpu=0.8 Vmaxpu=1.2 model=1 kW=4.09004 kvar=0.8305180443395029 Phases=2

New Load.load_p1ulv5419 conn=wye bus1=p1ulv5419.1.2 kV=0.2080002494301389 Vminpu=0.8 Vmaxpu=1.2 model=1 kW=11.590100000000001 kvar=2.3473988851735554 Phases=2

New Load.load_p1ulv5432 conn=wye bus1=p1ulv5432.1.2.3 kV=0.48 Vminpu=0.8 Vmaxpu=1.2 model=1 kW=23.8302 kvar=4.83892849464045 Phases=3

New Load.load_p1ulv5439 conn=wye bus1=p1ulv5439.1.2 kV=0.2080002494301389 Vminpu=0.8 Vmaxpu=1.2 model=1 kW=4.15004 kvar=1.3596291218342271 Phases=2

New Load.load_p1ulv5441 conn=wye bus1=p1ulv5441.1.2 kV=0.2080002494301389 Vminpu=0.8 Vmaxpu=1.2 model=1 kW=21.1701 kvar=1.249652027631681 Phases=2

New Load.load_p1ulv5442 conn=wye bus1=p1ulv5442.1.2 kV=0.2080002494301389 Vminpu=0.8 Vmaxpu=1.2 model=1 kW=4.14004 kvar=1.3592956687066866 Phases=2

New Load.load_p1ulv5487 conn=wye bus1=p1ulv5487.1.2 kV=0.2080002494301389 Vminpu=0.8 Vmaxpu=1.2 model=1 kW=11.69 kvar=0.8508239104029033 Phases=2

New Load.load_p1ulv5506 conn=wye bus1=p1ulv5506.1.2 kV=0.2080002494301389 Vminpu=0.8 Vmaxpu=1.2 model=1 kW=3.9600400000000002 kvar=0.7999668632932473 Phases=2

New Load.load_p1ulv5507 conn=wye bus1=p1ulv5507.1.2 kV=0.2080002494301389 Vminpu=0.8 Vmaxpu=1.2 model=1 kW=10.67 kvar=0.6403771062023346 Phases=2

New Load.load_p1ulv5742 conn=wye bus1=p1ulv5742.1.2 kV=0.2080002494301389 Vminpu=0.8 Vmaxpu=1.2 model=1 kW=2.33002 kvar=0.469460711936096 Phases=2

New Load.load_p1ulv5743 conn=wye bus1=p1ulv5743.1.2 kV=0.2080002494301389 Vminpu=0.8 Vmaxpu=1.2 model=1 kW=17.22 kvar=0.4496313641006546 Phases=2

New Load.load_p1ulv5744 conn=wye bus1=p1ulv5744.1.2 kV=0.2080002494301389 Vminpu=0.8 Vmaxpu=1.2 model=1 kW=2.72003 kvar=0.5494726990544365 Phases=2

New Load.load_p1ulv5745 conn=wye bus1=p1ulv5745.1.2 kV=0.2080002494301389 Vminpu=0.8 Vmaxpu=1.2 model=1 kW=10.46 kvar=0.5995091605836256 Phases=2

New Load.load_p1ulv5746 conn=wye bus1=p1ulv5746.1.2 kV=0.2080002494301389 Vminpu=0.8 Vmaxpu=1.2 model=1 kW=10.29 kvar=0.569452865461029 Phases=2

New Load.load_p1ulv5747 conn=wye bus1=p1ulv5746.1.2 kV=0.2080002494301389 Vminpu=0.8 Vmaxpu=1.2 model=1 kW=9.56 kvar=0.4204557986498457 Phases=2

New Load.load_p1ulv5748 conn=wye bus1=p1ulv5748.1.2 kV=0.2080002494301389 Vminpu=0.8 Vmaxpu=1.2 model=1 kW=17.81 kvar=0.570600928141371 Phases=2

New Load.load_p1ulv5749 conn=wye bus1=p1ulv5749.1.2 kV=0.2080002494301389 Vminpu=0.8 Vmaxpu=1.2 model=1 kW=17.91 kvar=0.5893824192907394 Phases=2

New Load.load_p1ulv5750 conn=wye bus1=p1ulv5750.1.2 kV=0.2080002494301389 Vminpu=0.8 Vmaxpu=1.2 model=1 kW=10.79 kvar=0.6697886084538411 Phases=2

New Load.load_p1ulv5751 conn=wye bus1=p1ulv5751.1.2 kV=0.2080002494301389 Vminpu=0.8 Vmaxpu=1.2 model=1 kW=17.8 kvar=0.5700337678771953 Phases=2

New Load.load_p1ulv5752 conn=wye bus1=p1ulv5751.1.2 kV=0.2080002494301389 Vminpu=0.8 Vmaxpu=1.2 model=1 kW=17.8 kvar=0.5700337678771953 Phases=2

New Load.load_p1ulv5753 conn=wye bus1=p1ulv5753.1.2 kV=0.2080002494301389 Vminpu=0.8 Vmaxpu=1.2 model=1 kW=10.27 kvar=0.5595731887375364 Phases=2

New Load.load_p1ulv5754 conn=wye bus1=p1ulv5754.1.2 kV=0.2080002494301389 Vminpu=0.8 Vmaxpu=1.2 model=1 kW=17.89 kvar=0.5898631429656088 Phases=2

New Load.load_p1ulv5755 conn=wye bus1=p1ulv5755.1.2 kV=0.2080002494301389 Vminpu=0.8 Vmaxpu=1.2 model=1 kW=17.51 kvar=0.5096833299511698 Phases=2

New Load.load_p1ulv5756 conn=wye bus1=p1ulv5755.1.2 kV=0.2080002494301389 Vminpu=0.8 Vmaxpu=1.2 model=1 kW=17.06 kvar=0.4204557986498457 Phases=2

New Load.load_p1ulv5757 conn=wye bus1=p1ulv5757.1.2 kV=0.2080002494301389 Vminpu=0.8 Vmaxpu=1.2 model=1 kW=17.21 kvar=0.4499187607575488 Phases=2

New Load.load_p1ulv5758 conn=wye bus1=p1ulv5757.1.2 kV=0.2080002494301389 Vminpu=0.8 Vmaxpu=1.2 model=1 kW=17.78 kvar=0.5601303263507202 Phases=2

New Load.load_p1ulv5759 conn=wye bus1=p1ulv5757.1.2 kV=0.2080002494301389 Vminpu=0.8 Vmaxpu=1.2 model=1 kW=17.82 kvar=0.5696736784206362 Phases=2

New Load.load_p1ulv5760 conn=wye bus1=p1ulv5760.1.2 kV=0.2080002494301389 Vminpu=0.8 Vmaxpu=1.2 model=1 kW=10.3 kvar=0.5700337678771953 Phases=2

New Load.load_p1ulv5761 conn=wye bus1=p1ulv5761.1.2 kV=0.2080002494301389 Vminpu=0.8 Vmaxpu=1.2 model=1 kW=17.82 kvar=0.5696736784206362 Phases=2

New Load.load_p1ulv5762 conn=wye bus1=p1ulv5762.1.2 kV=0.2080002494301389 Vminpu=0.8 Vmaxpu=1.2 model=1 kW=2.41002 kvar=0.489375433301163 Phases=2

New Load.load_p1ulv5763 conn=wye bus1=p1ulv5763.1.2 kV=0.2080002494301389 Vminpu=0.8 Vmaxpu=1.2 model=1 kW=1.85002 kvar=0.38047547394451825 Phases=2

New Load.load_p1ulv5764 conn=wye bus1=p1ulv5764.1.2 kV=0.2080002494301389 Vminpu=0.8 Vmaxpu=1.2 model=1 kW=3.06003 kvar=0.6197626431693976 Phases=2

New Load.load_p1ulv5765 conn=wye bus1=p1ulv5765.1.2 kV=0.2080002494301389 Vminpu=0.8 Vmaxpu=1.2 model=1 kW=2.87003 kvar=0.5797741681037358 Phases=2

New Load.load_p1ulv5766 conn=wye bus1=p1ulv5766.1.2 kV=0.2080002494301389 Vminpu=0.8 Vmaxpu=1.2 model=1 kW=2.83003 kvar=0.5702045040817287 Phases=2
