New Line.l(r:p1ulv636-udt332lv) Units=km Length=0.0212996 bus1=udt332lv.1.2 bus2=p1ulv636.1.2 switch=n enabled=y phases=2 Linecode=1P_OH_AL_2/0_Rucina_0_416_0_2_2

New Line.l(r:p1ulv637-udt332lv) Units=km Length=0.0306192 bus1=udt332lv.1.2 bus2=p1ulv637.1.2 switch=n enabled=y phases=2 Linecode=1P_OH_AL_4/0_Zuzara_0_416_0_2_2

New Line.l(r:p1ulv1237-udm1284) Units=km Length=0.0133559 bus1=udm1284.1.2 bus2=p1ulv1237.1.2 switch=n enabled=y phases=2 Linecode=1P_OH_AL_2/0_Rucina_0_416_0_2_2

New Line.l(r:udm1284-udt332lv) Units=km Length=0.0172619 bus1=udt332lv.1.2 bus2=udm1284.1.2 switch=n enabled=y phases=2 Linecode=1P_OH_AL_2/0_Rucina_0_416_0_2_2

New Line.l(r:p1ulv1268-udm1285) Units=km Length=0.0104524 bus1=udm1285.1.2 bus2=p1ulv1268.1.2 switch=n enabled=y phases=2 Linecode=1P_OH_AL_2/0_Rucina_0_416_0_2_2

New Line.l(r:p1ulv45408-udm1285) Units=km Length=0.0126788 bus1=udm1285.1.2 bus2=p1ulv45408.1.2 switch=n enabled=y phases=2 Linecode=1P_OH_AL_2/0_Rucina_0_416_0_2_2

New Line.l(r:udm1285-udt332lv) Units=km Length=0.0345437 bus1=udt332lv.1.2 bus2=udm1285.1.2 switch=n enabled=y phases=2 Linecode=1P_OH_AL_4/0_Zuzara_0_416_0_2_2

New Line.l(r:p1ulv1170-udt630lv) Units=km Length=0.0155812 bus1=udt630lv.1.2 bus2=p1ulv1170.1.2 switch=n enabled=y phases=2 Linecode=1P_OH_AL_2/0_Rucina_0_416_0_2_2

New Line.l(r:p1ulv44599-udt630lv) Units=km Length=0.0202611 bus1=udt630lv.1.2 bus2=p1ulv44599.1.2 switch=n enabled=y phases=2 Linecode=1P_OH_AL_2/0_Rucina_0_416_0_2_2

New Line.l(r:p1ulv1174-udm2621) Units=km Length=0.0163827 bus1=udm2621.1.2 bus2=p1ulv1174.1.2 switch=n enabled=y phases=2 Linecode=1P_OH_AL_2/0_Rucina_0_416_0_2_2

New Line.l(r:p1ulv51559-udm2621) Units=km Length=0.0202301 bus1=udm2621.1.2 bus2=p1ulv51559.1.2 switch=n enabled=y phases=2 Linecode=1P_OH_AL_2/0_Rucina_0_416_0_2_2

New Line.l(r:p1ulv53614-udm2621) Units=km Length=0.0154172 bus1=udm2621.1.2 bus2=p1ulv53614.1.2 switch=n enabled=y phases=2 Linecode=1P_OH_AL_2/0_Rucina_0_416_0_2_2

New Line.l(r:udm2621-udt630lv) Units=km Length=0.0192593 bus1=udt630lv.1.2 bus2=udm2621.1.2 switch=n enabled=y phases=2 Linecode=1P_OH_AL_2/0_Rucina_0_416_0_2_2

New Line.l(r:p1ulv1190-udm2622) Units=km Length=0.0200837 bus1=udm2622.1.2 bus2=p1ulv1190.1.2 switch=n enabled=y phases=2 Linecode=1P_OH_AL_2/0_Rucina_0_416_0_2_2

New Line.l(r:p1ulv54802-udm2622) Units=km Length=0.0159503 bus1=udm2622.1.2 bus2=p1ulv54802.1.2 switch=n enabled=y phases=2 Linecode=1P_OH_AL_2/0_Rucina_0_416_0_2_2

New Line.l(r:udm2622-udt630lv) Units=km Length=0.0192593 bus1=udt630lv.1.2 bus2=udm2622.1.2 switch=n enabled=y phases=2 Linecode=1P_OH_AL_2/0_Rucina_0_416_0_2_2

New Line.l(r:p1ulv1172-udt632lv) Units=km Length=0.0151509 bus1=udt632lv.1.2 bus2=p1ulv1172.1.2 switch=n enabled=y phases=2 Linecode=1P_UG_AL_1/0_Brenau_0_416_0_2_2

New Line.l(r:p1ulv1178-udm2629) Units=km Length=0.014521200000000001 bus1=udm2629.1.2 bus2=p1ulv1178.1.2 switch=n enabled=y phases=2 Linecode=1P_OH_AL_2/0_Rucina_0_416_0_2_2

New Line.l(r:p1ulv1192-udm2629) Units=km Length=0.020878 bus1=udm2629.1.2 bus2=p1ulv1192.1.2 switch=n enabled=y phases=2 Linecode=1P_OH_AL_2/0_Rucina_0_416_0_2_2

New Line.l(r:p1ulv1195-udm2633) Units=km Length=0.0194253 bus1=udm2633.1.2 bus2=p1ulv1195.1.2 switch=n enabled=y phases=2 Linecode=1P_OH_AL_2/0_Rucina_0_416_0_2_2

New Line.l(r:p1ulv60822-udm2633) Units=km Length=0.0155029 bus1=udm2633.1.2 bus2=p1ulv60822.1.2 switch=n enabled=y phases=2 Linecode=1P_OH_AL_2/0_Rucina_0_416_0_2_2

New Line.l(r:udm2629-udm2633) Units=km Length=0.0192593 bus1=udm2629.1.2 bus2=udm2633.1.2 switch=n enabled=y phases=2 Linecode=1P_OH_AL_2/0_Rucina_0_416_0_2_2

New Line.l(r:udm2629-udt632lv) Units=km Length=0.0192593 bus1=udt632lv.1.2 bus2=udm2629.1.2 switch=n enabled=y phases=2 Linecode=1P_OH_AL_2/0_Rucina_0_416_0_2_2

New Line.l(r:p1ulv1186-udm2631) Units=km Length=0.015325 bus1=udm2631.1.2 bus2=p1ulv1186.1.2 switch=n enabled=y phases=2 Linecode=1P_UG_AL_1/0_Brenau_0_416_0_2_2

New Line.l(r:p1ulv1196-udm2631) Units=km Length=0.0178844 bus1=udm2631.1.2 bus2=p1ulv1196.1.2 switch=n enabled=y phases=2 Linecode=1P_UG_AL_1/0_Brenau_0_416_0_2_2

New Line.l(r:p1ulv1182-udm2630) Units=km Length=0.015623300000000001 bus1=udm2630.1.2 bus2=p1ulv1182.1.2 switch=n enabled=y phases=2 Linecode=1P_UG_AL_1/0_Brenau_0_416_0_2_2

New Line.l(r:p1ulv1200-udm2630) Units=km Length=0.0175905 bus1=udm2630.1.2 bus2=p1ulv1200.1.2 switch=n enabled=y phases=2 Linecode=1P_UG_AL_1/0_Brenau_0_416_0_2_2

New Line.l(r:udm2630-udm2631) Units=km Length=0.0182036 bus1=udm2631.1.2 bus2=udm2630.1.2 switch=n enabled=y phases=2 Linecode=1P_UG_AL_1/0_Brenau_0_416_0_2_2

New Line.l(r:udm2631-udt632lv) Units=km Length=0.0181937 bus1=udt632lv.1.2 bus2=udm2631.1.2 switch=n enabled=y phases=2 Linecode=1P_UG_AL_4/0_Sweetbriar_0_416_0_2_2

New Line.l(r:p1ulv1176-udt633lv) Units=km Length=0.020606 bus1=udt633lv.1.2 bus2=p1ulv1176.1.2 switch=n enabled=y phases=2 Linecode=1P_OH_AL_2/0_Rucina_0_416_0_2_2

New Line.l(r:p1ulv44721-udt633lv) Units=km Length=0.0143438 bus1=udt633lv.1.2 bus2=p1ulv44721.1.2 switch=n enabled=y phases=2 Linecode=1P_OH_AL_2/0_Rucina_0_416_0_2_2

New Line.l(r:p1ulv1177-udm2639) Units=km Length=0.0205005 bus1=udm2639.1.2 bus2=p1ulv1177.1.2 switch=n enabled=y phases=2 Linecode=1P_OH_AL_2/0_Rucina_0_416_0_2_2

New Line.l(r:p1ulv55983-udm2639) Units=km Length=0.0151164 bus1=udm2639.1.2 bus2=p1ulv55983.1.2 switch=n enabled=y phases=2 Linecode=1P_OH_AL_2/0_Rucina_0_416_0_2_2

New Line.l(r:p1ulv1173-udm2637) Units=km Length=0.019521 bus1=udm2637.1.2 bus2=p1ulv1173.1.2 switch=n enabled=y phases=2 Linecode=1P_OH_AL_2/0_Rucina_0_416_0_2_2

New Line.l(r:udm2637-udm2639) Units=km Length=0.0192493 bus1=udm2639.1.2 bus2=udm2637.1.2 switch=n enabled=y phases=2 Linecode=1P_OH_AL_2/0_Rucina_0_416_0_2_2

New Line.l(r:udm2639-udt633lv) Units=km Length=0.0192593 bus1=udt633lv.1.2 bus2=udm2639.1.2 switch=n enabled=y phases=2 Linecode=1P_OH_AL_2/0_Rucina_0_416_0_2_2

New Line.l(r:p1ulv1187-udm2640) Units=km Length=0.0189555 bus1=udm2640.1.2 bus2=p1ulv1187.1.2 switch=n enabled=y phases=2 Linecode=1P_OH_AL_2/0_Rucina_0_416_0_2_2

New Line.l(r:p1ulv41478-udm2640) Units=km Length=0.0131236 bus1=udm2640.1.2 bus2=p1ulv41478.1.2 switch=n enabled=y phases=2 Linecode=1P_OH_AL_2/0_Rucina_0_416_0_2_2

New Line.l(r:udm2640-udt633lv) Units=km Length=0.0192604 bus1=udt633lv.1.2 bus2=udm2640.1.2 switch=n enabled=y phases=2 Linecode=1P_OH_AL_2/0_Rucina_0_416_0_2_2

New Line.l(r:p1ulv1175-udm2644) Units=km Length=0.0126398 bus1=udm2644.1.2 bus2=p1ulv1175.1.2 switch=n enabled=y phases=2 Linecode=1P_UG_AL_4/0_Sweetbriar_0_416_0_2_2

New Line.l(r:p1ulv1184-udm2645) Units=km Length=0.0200122 bus1=udm2645.1.2 bus2=p1ulv1184.1.2 switch=n enabled=y phases=2 Linecode=1P_OH_AL_2/0_Rucina_0_416_0_2_2

New Line.l(r:udm2644-udm2645) Units=km Length=0.034164400000000004 bus1=udm2644.1.2 bus2=udm2645.1.2 switch=n enabled=y phases=2 Linecode=1P_OH_AL_4/0_Zuzara_0_416_0_2_2

New Line.l(r:udm2644-udt634lv) Units=km Length=0.00942981 bus1=udt634lv.1.2 bus2=udm2644.1.2 switch=n enabled=y phases=2 Linecode=1P_UG_AL_4/0_Sweetbriar_0_416_0_2_2

New Line.l(r:p1ulv1188-udm2646) Units=km Length=0.0203392 bus1=udm2646.1.2 bus2=p1ulv1188.1.2 switch=n enabled=y phases=2 Linecode=1P_UG_AL_1/0_Brenau_0_416_0_2_2

New Line.l(r:udm2646-udt634lv) Units=km Length=0.00947275 bus1=udt634lv.1.2 bus2=udm2646.1.2 switch=n enabled=y phases=2 Linecode=1P_UG_AL_1/0_Brenau_0_416_0_2_2

New Line.l(r:p1ulv1181-udt635lv) Units=km Length=0.0168213 bus1=udt635lv.1.2 bus2=p1ulv1181.1.2 switch=n enabled=y phases=2 Linecode=1P_UG_AL_1/0_Brenau_0_416_0_2_2

New Line.l(r:p1ulv1179-udm2647) Units=km Length=0.0179113 bus1=udm2647.1.2 bus2=p1ulv1179.1.2 switch=n enabled=y phases=2 Linecode=1P_UG_AL_1/0_Brenau_0_416_0_2_2

New Line.l(r:p1ulv56275-udm2652) Units=km Length=0.0195409 bus1=udm2652.1.2 bus2=p1ulv56275.1.2 switch=n enabled=y phases=2 Linecode=1P_UG_AL_1/0_Brenau_0_416_0_2_2

New Line.l(r:udm2647-udm2652) Units=km Length=0.019134 bus1=udm2647.1.2 bus2=udm2652.1.2 switch=n enabled=y phases=2 Linecode=1P_UG_AL_1/0_Brenau_0_416_0_2_2

New Line.l(r:udm2647-udt635lv) Units=km Length=0.0193455 bus1=udt635lv.1.2 bus2=udm2647.1.2 switch=n enabled=y phases=2 Linecode=1P_UG_AL_1/0_Brenau_0_416_0_2_2

New Line.l(r:p1ulv1194-udm2650) Units=km Length=0.0175826 bus1=udm2650.1.2 bus2=p1ulv1194.1.2 switch=n enabled=y phases=2 Linecode=1P_UG_AL_1/0_Brenau_0_416_0_2_2

New Line.l(r:p1ulv43322-udm2651) Units=km Length=0.0169503 bus1=udm2651.1.2 bus2=p1ulv43322.1.2 switch=n enabled=y phases=2 Linecode=1P_UG_AL_1/0_Brenau_0_416_0_2_2

New Line.l(r:p1ulv1185-udm2649) Units=km Length=0.0167701 bus1=udm2649.1.2 bus2=p1ulv1185.1.2 switch=n enabled=y phases=2 Linecode=1P_UG_AL_1/0_Brenau_0_416_0_2_2

New Line.l(r:udm2649-udm2651) Units=km Length=0.00967275 bus1=udm2651.1.2 bus2=udm2649.1.2 switch=n enabled=y phases=2 Linecode=1P_UG_AL_1/0_Brenau_0_416_0_2_2

New Line.l(r:udm2650-udm2651) Units=km Length=0.00966282 bus1=udm2650.1.2 bus2=udm2651.1.2 switch=n enabled=y phases=2 Linecode=1P_UG_AL_1/0_Brenau_0_416_0_2_2

New Line.l(r:udm2650-udt635lv) Units=km Length=0.00967275 bus1=udt635lv.1.2 bus2=udm2650.1.2 switch=n enabled=y phases=2 Linecode=1P_UG_AL_2/0_Converse_0_416_0_2_2

New Line.l(r:p1ulv1180-udm2653) Units=km Length=0.0145071 bus1=udm2653.1.2 bus2=p1ulv1180.1.2 switch=n enabled=y phases=2 Linecode=1P_UG_AL_1/0_Brenau_0_416_0_2_2

New Line.l(r:p1ulv58656-udm2653) Units=km Length=0.0188434 bus1=udm2653.1.2 bus2=p1ulv58656.1.2 switch=n enabled=y phases=2 Linecode=1P_UG_AL_1/0_Brenau_0_416_0_2_2

New Line.l(r:udm2653-udt636lv) Units=km Length=0.00909686 bus1=udt636lv.1.2 bus2=udm2653.1.2 switch=n enabled=y phases=2 Linecode=1P_UG_AL_1/0_Brenau_0_416_0_2_2

New Line.l(r:p1ulv57028-udm2654) Units=km Length=0.0190989 bus1=udm2654.1.2 bus2=p1ulv57028.1.2 switch=n enabled=y phases=2 Linecode=1P_OH_AL_2/0_Rucina_0_416_0_2_2

New Line.l(r:udm2654-udt636lv) Units=km Length=0.0629117 bus1=udt636lv.1.2 bus2=udm2654.1.2 switch=n enabled=y phases=2 Linecode=1P_OH_AL_4/0_Zuzara_0_416_0_2_2

New Line.l(r:p1ulv48629-udt637lv) Units=km Length=0.016733 bus1=udt637lv.1.2 bus2=p1ulv48629.1.2 switch=n enabled=y phases=2 Linecode=1P_UG_AL_1/0_Brenau_0_416_0_2_2

New Line.l(r:p1ulv1183-udm2656) Units=km Length=0.016545 bus1=udm2656.1.2 bus2=p1ulv1183.1.2 switch=n enabled=y phases=2 Linecode=1P_UG_AL_1/0_Brenau_0_416_0_2_2

New Line.l(r:udm2656-udt637lv) Units=km Length=0.0193455 bus1=udt637lv.1.2 bus2=udm2656.1.2 switch=n enabled=y phases=2 Linecode=1P_UG_AL_1/0_Brenau_0_416_0_2_2

New Line.l(r:p1ulv1189-udm2657) Units=km Length=0.0149542 bus1=udm2657.1.2 bus2=p1ulv1189.1.2 switch=n enabled=y phases=2 Linecode=1P_UG_AL_1/0_Brenau_0_416_0_2_2

New Line.l(r:udm2657-udt637lv) Units=km Length=0.00966282 bus1=udt637lv.1.2 bus2=udm2657.1.2 switch=n enabled=y phases=2 Linecode=1P_UG_AL_1/0_Brenau_0_416_0_2_2

New Line.l(r:p1ulv1193-udm2659) Units=km Length=0.0180893 bus1=udm2659.1.2 bus2=p1ulv1193.1.2 switch=n enabled=y phases=2 Linecode=1P_OH_AL_2/0_Rucina_0_416_0_2_2

New Line.l(r:udm2659-udt638lv) Units=km Length=0.0581767 bus1=udt638lv.1.2 bus2=udm2659.1.2 switch=n enabled=y phases=2 Linecode=1P_OH_AL_4/0_Zuzara_0_416_0_2_2

New Line.l(r:p1ulv1209-udm2660) Units=km Length=0.0227933 bus1=udm2660.1.2 bus2=p1ulv1209.1.2 switch=n enabled=y phases=2 Linecode=1P_OH_AL_2/0_Rucina_0_416_0_2_2

New Line.l(r:udm2660-udt638lv) Units=km Length=0.0568988 bus1=udt638lv.1.2 bus2=udm2660.1.2 switch=n enabled=y phases=2 Linecode=1P_OH_AL_4/0_Zuzara_0_416_0_2_2

New Line.l(r:p1ulv1197-udt639lv) Units=km Length=0.0199463 bus1=udt639lv.1.2 bus2=p1ulv1197.1.2 switch=n enabled=y phases=2 Linecode=1P_OH_AL_2/0_Rucina_0_416_0_2_2

New Line.l(r:p1ulv1201-udm2663) Units=km Length=0.0172712 bus1=udm2663.1.2 bus2=p1ulv1201.1.2 switch=n enabled=y phases=2 Linecode=1P_OH_AL_2/0_Rucina_0_416_0_2_2

New Line.l(r:p1ulv1247-udm2663) Units=km Length=0.0224279 bus1=udm2663.1.2 bus2=p1ulv1247.1.2 switch=n enabled=y phases=2 Linecode=1P_OH_AL_2/0_Rucina_0_416_0_2_2

New Line.l(r:p1ulv1230-udm2665) Units=km Length=0.0163976 bus1=udm2665.1.2 bus2=p1ulv1230.1.2 switch=n enabled=y phases=2 Linecode=1P_OH_AL_2/0_Rucina_0_416_0_2_2

New Line.l(r:p1ulv1242-udm2665) Units=km Length=0.021726 bus1=udm2665.1.2 bus2=p1ulv1242.1.2 switch=n enabled=y phases=2 Linecode=1P_OH_AL_2/0_Rucina_0_416_0_2_2

New Line.l(r:udm2663-udm2665) Units=km Length=0.018726600000000003 bus1=udm2663.1.2 bus2=udm2665.1.2 switch=n enabled=y phases=2 Linecode=1P_OH_AL_2/0_Rucina_0_416_0_2_2

New Line.l(r:udm2663-udt641lv) Units=km Length=0.018726600000000003 bus1=udt641lv.1.2 bus2=udm2663.1.2 switch=n enabled=y phases=2 Linecode=1P_OH_AL_2/0_Rucina_0_416_0_2_2

New Line.l(r:p1ulv41973-udm2668) Units=km Length=0.0123816 bus1=udm2668.1.2 bus2=p1ulv41973.1.2 switch=n enabled=y phases=2 Linecode=1P_OH_AL_2/0_Rucina_0_416_0_2_2

New Line.l(r:p1ulv1206-udm2664) Units=km Length=0.0209586 bus1=udm2664.1.2 bus2=p1ulv1206.1.2 switch=n enabled=y phases=2 Linecode=1P_OH_AL_2/0_Rucina_0_416_0_2_2

New Line.l(r:udm2664-udm2668) Units=km Length=0.0629547 bus1=udm2668.1.2 bus2=udm2664.1.2 switch=n enabled=y phases=2 Linecode=1P_OH_AL_4/0_Zuzara_0_416_0_2_2

New Line.l(r:udm2668-udt641lv) Units=km Length=0.018726600000000003 bus1=udt641lv.1.2 bus2=udm2668.1.2 switch=n enabled=y phases=2 Linecode=1P_OH_AL_2/0_Rucina_0_416_0_2_2

New Line.l(r:p1ulv1202-udt642lv) Units=km Length=0.0174248 bus1=udt642lv.1.2 bus2=p1ulv1202.1.2 switch=n enabled=y phases=2 Linecode=1P_OH_AL_2/0_Rucina_0_416_0_2_2

New Line.l(r:p1ulv51998-udt642lv) Units=km Length=0.01921 bus1=udt642lv.1.2 bus2=p1ulv51998.1.2 switch=n enabled=y phases=2 Linecode=1P_OH_AL_2/0_Rucina_0_416_0_2_2

New Line.l(r:p1ulv1205-udm2670) Units=km Length=0.017471500000000004 bus1=udm2670.1.2 bus2=p1ulv1205.1.2 switch=n enabled=y phases=2 Linecode=1P_OH_AL_2/0_Rucina_0_416_0_2_2

New Line.l(r:p1ulv1207-udm2670) Units=km Length=0.0165563 bus1=udm2670.1.2 bus2=p1ulv1207.1.2 switch=n enabled=y phases=2 Linecode=1P_OH_AL_2/0_Rucina_0_416_0_2_2

New Line.l(r:p1ulv54088-udm2674) Units=km Length=0.0281522 bus1=udm2674.1.2 bus2=p1ulv54088.1.2 switch=n enabled=y phases=2 Linecode=1P_OH_AL_4/0_Zuzara_0_416_0_2_2

New Line.l(r:udm2670-udm2674) Units=km Length=0.017126700000000005 bus1=udm2670.1.2 bus2=udm2674.1.2 switch=n enabled=y phases=2 Linecode=1P_OH_AL_2/0_Rucina_0_416_0_2_2

New Line.l(r:udm2670-udt642lv) Units=km Length=0.017126700000000005 bus1=udt642lv.1.2 bus2=udm2670.1.2 switch=n enabled=y phases=2 Linecode=1P_OH_AL_2/0_Rucina_0_416_0_2_2

New Line.l(r:p1ulv1272-udm2672) Units=km Length=0.0202792 bus1=udm2672.1.2 bus2=p1ulv1272.1.2 switch=n enabled=y phases=2 Linecode=1P_OH_AL_2/0_Rucina_0_416_0_2_2

New Line.l(r:p1ulv58350-udm2672) Units=km Length=0.0167982 bus1=udm2672.1.2 bus2=p1ulv58350.1.2 switch=n enabled=y phases=2 Linecode=1P_OH_AL_2/0_Rucina_0_416_0_2_2

New Line.l(r:p1ulv54152-udm2675) Units=km Length=0.0190236 bus1=udm2675.1.2 bus2=p1ulv54152.1.2 switch=n enabled=y phases=2 Linecode=1P_OH_AL_2/0_Rucina_0_416_0_2_2

New Line.l(r:udm2672-udm2675) Units=km Length=0.0175362 bus1=udm2672.1.2 bus2=udm2675.1.2 switch=n enabled=y phases=2 Linecode=1P_OH_AL_2/0_Rucina_0_416_0_2_2

New Line.l(r:udm2672-udt642lv) Units=km Length=0.0175278 bus1=udt642lv.1.2 bus2=udm2672.1.2 switch=n enabled=y phases=2 Linecode=1P_OH_AL_2/0_Rucina_0_416_0_2_2

New Line.l(r:p1ulv1203-udt643lv) Units=km Length=0.023534500000000003 bus1=udt643lv.1.2 bus2=p1ulv1203.1.2 switch=n enabled=y phases=2 Linecode=1P_OH_AL_2/0_Rucina_0_416_0_2_2

New Line.l(r:p1ulv1217-udt644lv) Units=km Length=0.0188665 bus1=udt644lv.1.2 bus2=p1ulv1217.1.2 switch=n enabled=y phases=2 Linecode=1P_OH_AL_2/0_Rucina_0_416_0_2_2

New Line.l(r:p1ulv1274-udt644lv) Units=km Length=0.0215797 bus1=udt644lv.1.2 bus2=p1ulv1274.1.2 switch=n enabled=y phases=2 Linecode=1P_OH_AL_2/0_Rucina_0_416_0_2_2

New Line.l(r:p1ulv1204-udm2678) Units=km Length=0.017674 bus1=udm2678.1.2 bus2=p1ulv1204.1.2 switch=n enabled=y phases=2 Linecode=1P_OH_AL_2/0_Rucina_0_416_0_2_2

New Line.l(r:udm2678-udt644lv) Units=km Length=0.0183042 bus1=udt644lv.1.2 bus2=udm2678.1.2 switch=n enabled=y phases=2 Linecode=1P_OH_AL_2/0_Rucina_0_416_0_2_2

New Line.l(r:p1ulv1208-udt645lv) Units=km Length=0.0175456 bus1=udt645lv.1.2 bus2=p1ulv1208.1.2 switch=n enabled=y phases=2 Linecode=1P_OH_AL_2/0_Rucina_0_416_0_2_2

New Line.l(r:p1ulv57126-udt645lv) Units=km Length=0.0158548 bus1=udt645lv.1.2 bus2=p1ulv57126.1.2 switch=n enabled=y phases=2 Linecode=1P_OH_AL_2/0_Rucina_0_416_0_2_2

New Line.l(r:p1ulv1231-udm2682) Units=km Length=0.016286 bus1=udm2682.1.2 bus2=p1ulv1231.1.2 switch=n enabled=y phases=2 Linecode=1P_OH_AL_2/0_Rucina_0_416_0_2_2

New Line.l(r:udm2682-udt645lv) Units=km Length=0.0177912 bus1=udt645lv.1.2 bus2=udm2682.1.2 switch=n enabled=y phases=2 Linecode=1P_OH_AL_2/0_Rucina_0_416_0_2_2

New Line.l(r:p1ulv1210-udt646lv) Units=km Length=0.0159084 bus1=udt646lv.1.2 bus2=p1ulv1210.1.2 switch=n enabled=y phases=2 Linecode=1P_OH_AL_2/0_Rucina_0_416_0_2_2

New Line.l(r:p1ulv1216-udm2686) Units=km Length=0.0145518 bus1=udm2686.1.2 bus2=p1ulv1216.1.2 switch=n enabled=y phases=2 Linecode=1P_OH_AL_2/0_Rucina_0_416_0_2_2

New Line.l(r:p1ulv1273-udm2686) Units=km Length=0.0192313 bus1=udm2686.1.2 bus2=p1ulv1273.1.2 switch=n enabled=y phases=2 Linecode=1P_OH_AL_2/0_Rucina_0_416_0_2_2

New Line.l(r:udm2686-udt646lv) Units=km Length=0.0392664 bus1=udt646lv.1.2 bus2=udm2686.1.2 switch=n enabled=y phases=2 Linecode=1P_OH_AL_4/0_Zuzara_0_416_0_2_2

New Line.l(r:p1ulv56217-udm2690) Units=km Length=0.0221599 bus1=udm2690.1.2 bus2=p1ulv56217.1.2 switch=n enabled=y phases=2 Linecode=1P_OH_AL_2/0_Rucina_0_416_0_2_2

New Line.l(r:p1ulv1213-udm2685) Units=km Length=0.018054000000000004 bus1=udm2685.1.2 bus2=p1ulv1213.1.2 switch=n enabled=y phases=2 Linecode=1P_OH_AL_2/0_Rucina_0_416_0_2_2

New Line.l(r:p1ulv1218-udm2687) Units=km Length=0.0205171 bus1=udm2687.1.2 bus2=p1ulv1218.1.2 switch=n enabled=y phases=2 Linecode=1P_OH_AL_2/0_Rucina_0_416_0_2_2

New Line.l(r:udm2685-udm2687) Units=km Length=0.0178015 bus1=udm2685.1.2 bus2=udm2687.1.2 switch=n enabled=y phases=2 Linecode=1P_OH_AL_2/0_Rucina_0_416_0_2_2

New Line.l(r:udm2685-udm2690) Units=km Length=0.0177912 bus1=udm2690.1.2 bus2=udm2685.1.2 switch=n enabled=y phases=2 Linecode=1P_OH_AL_2/0_Rucina_0_416_0_2_2

New Line.l(r:p1ulv53544-udm2689) Units=km Length=0.0165872 bus1=udm2689.1.2 bus2=p1ulv53544.1.2 switch=n enabled=y phases=2 Linecode=1P_OH_AL_2/0_Rucina_0_416_0_2_2

New Line.l(r:udm2689-udm2690) Units=km Length=0.0183142 bus1=udm2690.1.2 bus2=udm2689.1.2 switch=n enabled=y phases=2 Linecode=1P_OH_AL_2/0_Rucina_0_416_0_2_2

New Line.l(r:udm2690-udt646lv) Units=km Length=0.0196232 bus1=udt646lv.1.2 bus2=udm2690.1.2 switch=n enabled=y phases=2 Linecode=1P_OH_AL_2/0_Rucina_0_416_0_2_2

New Line.l(r:p1ulv1211-udt647lv) Units=km Length=0.0164057 bus1=udt647lv.1.2 bus2=p1ulv1211.1.2 switch=n enabled=y phases=2 Linecode=1P_OH_AL_2/0_Rucina_0_416_0_2_2

New Line.l(r:p1ulv1271-udt647lv) Units=km Length=0.0236282 bus1=udt647lv.1.2 bus2=p1ulv1271.1.2 switch=n enabled=y phases=2 Linecode=1P_OH_AL_2/0_Rucina_0_416_0_2_2

New Line.l(r:p1ulv52479-udt647lv) Units=km Length=0.0385473 bus1=udt647lv.1.2 bus2=p1ulv52479.1.2 switch=n enabled=y phases=2 Linecode=1P_OH_AL_4/0_Zuzara_0_416_0_2_2

New Line.l(r:p1ulv1225-udm2692) Units=km Length=0.0233288 bus1=udm2692.1.2 bus2=p1ulv1225.1.2 switch=n enabled=y phases=2 Linecode=1P_OH_AL_2/0_Rucina_0_416_0_2_2

New Line.l(r:p1ulv43444-udm2692) Units=km Length=0.0158195 bus1=udm2692.1.2 bus2=p1ulv43444.1.2 switch=n enabled=y phases=2 Linecode=1P_OH_AL_2/0_Rucina_0_416_0_2_2

New Line.l(r:udm2692-udt647lv) Units=km Length=0.0196332 bus1=udt647lv.1.2 bus2=udm2692.1.2 switch=n enabled=y phases=2 Linecode=1P_OH_AL_2/0_Rucina_0_416_0_2_2

New Line.l(r:p1ulv1227-udm2693) Units=km Length=0.023434100000000003 bus1=udm2693.1.2 bus2=p1ulv1227.1.2 switch=n enabled=y phases=2 Linecode=1P_OH_AL_2/0_Rucina_0_416_0_2_2

New Line.l(r:p1ulv40488-udm2693) Units=km Length=0.0166335 bus1=udm2693.1.2 bus2=p1ulv40488.1.2 switch=n enabled=y phases=2 Linecode=1P_OH_AL_2/0_Rucina_0_416_0_2_2

New Line.l(r:udm2693-udt647lv) Units=km Length=0.0196332 bus1=udt647lv.1.2 bus2=udm2693.1.2 switch=n enabled=y phases=2 Linecode=1P_OH_AL_2/0_Rucina_0_416_0_2_2

New Line.l(r:p1ulv1212-udm2698) Units=km Length=0.0129586 bus1=udm2698.1.2 bus2=p1ulv1212.1.2 switch=n enabled=y phases=2 Linecode=1P_OH_AL_2/0_Rucina_0_416_0_2_2

New Line.l(r:p1ulv59535-udm2702) Units=km Length=0.015148 bus1=udm2702.1.2 bus2=p1ulv59535.1.2 switch=n enabled=y phases=2 Linecode=1P_OH_AL_2/0_Rucina_0_416_0_2_2

New Line.l(r:p1ulv49845-udm2700) Units=km Length=0.0197562 bus1=udm2700.1.2 bus2=p1ulv49845.1.2 switch=n enabled=y phases=2 Linecode=1P_OH_AL_2/0_Rucina_0_416_0_2_2

New Line.l(r:udm2700-udm2702) Units=km Length=0.0171167 bus1=udm2702.1.2 bus2=udm2700.1.2 switch=n enabled=y phases=2 Linecode=1P_OH_AL_2/0_Rucina_0_416_0_2_2

New Line.l(r:udm2698-udm2702) Units=km Length=0.0350695 bus1=udm2698.1.2 bus2=udm2702.1.2 switch=n enabled=y phases=2 Linecode=1P_OH_AL_4/0_Zuzara_0_416_0_2_2

New Line.l(r:udm2698-udt648lv) Units=km Length=0.0179429 bus1=udt648lv.1.2 bus2=udm2698.1.2 switch=n enabled=y phases=2 Linecode=1P_OH_AL_2/0_Rucina_0_416_0_2_2

New Line.l(r:p1ulv11378-udm2699) Units=km Length=0.0188725 bus1=udm2699.1.2 bus2=p1ulv11378.1.2 switch=n enabled=y phases=2 Linecode=1P_OH_AL_2/0_Rucina_0_416_0_2_2

New Line.l(r:p1ulv55512-udm2699) Units=km Length=0.0303128 bus1=udm2699.1.2 bus2=p1ulv55512.1.2 switch=n enabled=y phases=2 Linecode=1P_OH_AL_4/0_Zuzara_0_416_0_2_2

New Line.l(r:udm2699-udt648lv) Units=km Length=0.0358857 bus1=udt648lv.1.2 bus2=udm2699.1.2 switch=n enabled=y phases=2 Linecode=1P_OH_AL_4/0_Zuzara_0_416_0_2_2

New Line.l(r:p1ulv1214-udt649lv) Units=km Length=0.0212559 bus1=udt649lv.1.2 bus2=p1ulv1214.1.2 switch=n enabled=y phases=2 Linecode=1P_OH_AL_2/0_Rucina_0_416_0_2_2

New Line.l(r:p1ulv55578-udt649lv) Units=km Length=0.0185334 bus1=udt649lv.1.2 bus2=p1ulv55578.1.2 switch=n enabled=y phases=2 Linecode=1P_OH_AL_2/0_Rucina_0_416_0_2_2

New Line.l(r:p1ulv1219-udm2704) Units=km Length=0.0208876 bus1=udm2704.1.2 bus2=p1ulv1219.1.2 switch=n enabled=y phases=2 Linecode=1P_OH_AL_2/0_Rucina_0_416_0_2_2

New Line.l(r:p1ulv60348-udm2704) Units=km Length=0.0177271 bus1=udm2704.1.2 bus2=p1ulv60348.1.2 switch=n enabled=y phases=2 Linecode=1P_OH_AL_2/0_Rucina_0_416_0_2_2

New Line.l(r:udm2704-udt649lv) Units=km Length=0.0359386 bus1=udt649lv.1.2 bus2=udm2704.1.2 switch=n enabled=y phases=2 Linecode=1P_OH_AL_4/0_Zuzara_0_416_0_2_2

New Line.l(r:p1ulv58180-udm2706) Units=km Length=0.0190045 bus1=udm2706.1.2 bus2=p1ulv58180.1.2 switch=n enabled=y phases=2 Linecode=1P_OH_AL_2/0_Rucina_0_416_0_2_2

New Line.l(r:p1ulv59403-udm2706) Units=km Length=0.017704 bus1=udm2706.1.2 bus2=p1ulv59403.1.2 switch=n enabled=y phases=2 Linecode=1P_OH_AL_2/0_Rucina_0_416_0_2_2

New Line.l(r:p1ulv60762-udm2709) Units=km Length=0.018644 bus1=udm2709.1.2 bus2=p1ulv60762.1.2 switch=n enabled=y phases=2 Linecode=1P_OH_AL_2/0_Rucina_0_416_0_2_2

New Line.l(r:udm2706-udm2709) Units=km Length=0.0167978 bus1=udm2706.1.2 bus2=udm2709.1.2 switch=n enabled=y phases=2 Linecode=1P_OH_AL_2/0_Rucina_0_416_0_2_2

New Line.l(r:udm2706-udt649lv) Units=km Length=0.0167978 bus1=udt649lv.1.2 bus2=udm2706.1.2 switch=n enabled=y phases=2 Linecode=1P_OH_AL_2/0_Rucina_0_416_0_2_2

New Line.l(r:p1ulv59226-udt650lv) Units=km Length=0.0147208 bus1=udt650lv.1.2 bus2=p1ulv59226.1.2 switch=n enabled=y phases=2 Linecode=1P_OH_AL_2/0_Rucina_0_416_0_2_2

New Line.l(r:p1ulv1215-udm2710) Units=km Length=0.0162652 bus1=udm2710.1.2 bus2=p1ulv1215.1.2 switch=n enabled=y phases=2 Linecode=1P_OH_AL_2/0_Rucina_0_416_0_2_2

New Line.l(r:udm2710-udt650lv) Units=km Length=0.0139244 bus1=udt650lv.1.2 bus2=udm2710.1.2 switch=n enabled=y phases=2 Linecode=1P_OH_AL_2/0_Rucina_0_416_0_2_2

New Line.l(r:p1ulv52375-udm2711) Units=km Length=0.0161613 bus1=udm2711.1.2 bus2=p1ulv52375.1.2 switch=n enabled=y phases=2 Linecode=1P_OH_AL_2/0_Rucina_0_416_0_2_2

New Line.l(r:udm2711-udt650lv) Units=km Length=0.0255788 bus1=udt650lv.1.2 bus2=udm2711.1.2 switch=n enabled=y phases=2 Linecode=1P_OH_AL_2/0_Rucina_0_416_0_2_2

New Line.l(r:p1ulv1220-udt651lv) Units=km Length=0.0162357 bus1=udt651lv.1.2 bus2=p1ulv1220.1.2 switch=n enabled=y phases=2 Linecode=1P_OH_AL_2/0_Rucina_0_416_0_2_2

New Line.l(r:p1ulv1228-udm2714) Units=km Length=0.012252700000000002 bus1=udm2714.1.2 bus2=p1ulv1228.1.2 switch=n enabled=y phases=2 Linecode=1P_OH_AL_2/0_Rucina_0_416_0_2_2

New Line.l(r:udm2714-udt651lv) Units=km Length=0.0580993 bus1=udt651lv.1.2 bus2=udm2714.1.2 switch=n enabled=y phases=2 Linecode=1P_OH_AL_4/0_Zuzara_0_416_0_2_2

New Line.l(r:p1ulv58469-udm2716) Units=km Length=0.0174356 bus1=udm2716.1.2 bus2=p1ulv58469.1.2 switch=n enabled=y phases=2 Linecode=1P_OH_AL_2/0_Rucina_0_416_0_2_2

New Line.l(r:p1ulv1235-udm2715) Units=km Length=0.0172231 bus1=udm2715.1.2 bus2=p1ulv1235.1.2 switch=n enabled=y phases=2 Linecode=1P_OH_AL_2/0_Rucina_0_416_0_2_2

New Line.l(r:udm2715-udm2716) Units=km Length=0.0511126 bus1=udm2716.1.2 bus2=udm2715.1.2 switch=n enabled=y phases=2 Linecode=1P_OH_AL_4/0_Zuzara_0_416_0_2_2

New Line.l(r:udm2716-udt651lv) Units=km Length=0.0193732 bus1=udt651lv.1.2 bus2=udm2716.1.2 switch=n enabled=y phases=2 Linecode=1P_OH_AL_2/0_Rucina_0_416_0_2_2

New Line.l(r:p1ulv1221-udm2717) Units=km Length=0.018287100000000004 bus1=udm2717.1.2 bus2=p1ulv1221.1.2 switch=n enabled=y phases=2 Linecode=1P_OH_AL_2/0_Rucina_0_416_0_2_2

New Line.l(r:p1ulv1222-udm2718) Units=km Length=0.0124991 bus1=udm2718.1.2 bus2=p1ulv1222.1.2 switch=n enabled=y phases=2 Linecode=1P_OH_AL_2/0_Rucina_0_416_0_2_2

New Line.l(r:udm2717-udm2718) Units=km Length=0.0673498 bus1=udm2717.1.2 bus2=udm2718.1.2 switch=n enabled=y phases=2 Linecode=1P_OH_AL_4/0_Zuzara_0_416_0_2_2

New Line.l(r:udm2717-udt652lv) Units=km Length=0.0163448 bus1=udt652lv.1.2 bus2=udm2717.1.2 switch=n enabled=y phases=2 Linecode=1P_OH_AL_2/0_Rucina_0_416_0_2_2

New Line.l(r:p1ulv1232-udm2719) Units=km Length=0.022111800000000004 bus1=udm2719.1.2 bus2=p1ulv1232.1.2 switch=n enabled=y phases=2 Linecode=1P_OH_AL_2/0_Rucina_0_416_0_2_2

New Line.l(r:udm2719-udt652lv) Units=km Length=0.0551188 bus1=udt652lv.1.2 bus2=udm2719.1.2 switch=n enabled=y phases=2 Linecode=1P_OH_AL_4/0_Zuzara_0_416_0_2_2

New Line.l(r:p1ulv40186-udt653lv) Units=km Length=0.0165686 bus1=udt653lv.1.2 bus2=p1ulv40186.1.2 switch=n enabled=y phases=2 Linecode=1P_OH_AL_2/0_Rucina_0_416_0_2_2

New Line.l(r:p1ulv1223-udm2720) Units=km Length=0.0166985 bus1=udm2720.1.2 bus2=p1ulv1223.1.2 switch=n enabled=y phases=2 Linecode=1P_OH_AL_2/0_Rucina_0_416_0_2_2

New Line.l(r:p1ulv40292-udm2720) Units=km Length=0.0218705 bus1=udm2720.1.2 bus2=p1ulv40292.1.2 switch=n enabled=y phases=2 Linecode=1P_OH_AL_2/0_Rucina_0_416_0_2_2

New Line.l(r:udm2720-udt653lv) Units=km Length=0.0196332 bus1=udt653lv.1.2 bus2=udm2720.1.2 switch=n enabled=y phases=2 Linecode=1P_OH_AL_2/0_Rucina_0_416_0_2_2

New Line.l(r:p1ulv1224-udm2723) Units=km Length=0.0212609 bus1=udm2723.1.2 bus2=p1ulv1224.1.2 switch=n enabled=y phases=2 Linecode=1P_OH_AL_2/0_Rucina_0_416_0_2_2

New Line.l(r:udm2723-udt654lv) Units=km Length=0.03674270000000001 bus1=udt654lv.1.2 bus2=udm2723.1.2 switch=n enabled=y phases=2 Linecode=1P_OH_AL_4/0_Zuzara_0_416_0_2_2

New Line.l(r:p1ulv1234-udm2724) Units=km Length=0.0222569 bus1=udm2724.1.2 bus2=p1ulv1234.1.2 switch=n enabled=y phases=2 Linecode=1P_OH_AL_2/0_Rucina_0_416_0_2_2

New Line.l(r:udm2724-udt654lv) Units=km Length=0.018376100000000003 bus1=udt654lv.1.2 bus2=udm2724.1.2 switch=n enabled=y phases=2 Linecode=1P_OH_AL_2/0_Rucina_0_416_0_2_2

New Line.l(r:p1ulv42036-udt655lv) Units=km Length=0.0168603 bus1=udt655lv.1.2 bus2=p1ulv42036.1.2 switch=n enabled=y phases=2 Linecode=1P_OH_AL_2/0_Rucina_0_416_0_2_2

New Line.l(r:p1ulv57254-udt655lv) Units=km Length=0.0161045 bus1=udt655lv.1.2 bus2=p1ulv57254.1.2 switch=n enabled=y phases=2 Linecode=1P_OH_AL_2/0_Rucina_0_416_0_2_2

New Line.l(r:p1ulv52602-udm2728) Units=km Length=0.0171032 bus1=udm2728.1.2 bus2=p1ulv52602.1.2 switch=n enabled=y phases=2 Linecode=1P_OH_AL_2/0_Rucina_0_416_0_2_2

New Line.l(r:p1ulv54018-udm2729) Units=km Length=0.0170492 bus1=udm2729.1.2 bus2=p1ulv54018.1.2 switch=n enabled=y phases=2 Linecode=1P_OH_AL_2/0_Rucina_0_416_0_2_2

New Line.l(r:udm2728-udm2729) Units=km Length=0.0211786 bus1=udm2728.1.2 bus2=udm2729.1.2 switch=n enabled=y phases=2 Linecode=1P_OH_AL_2/0_Rucina_0_416_0_2_2

New Line.l(r:udm2728-udt655lv) Units=km Length=0.0218202 bus1=udt655lv.1.2 bus2=udm2728.1.2 switch=n enabled=y phases=2 Linecode=1P_OH_AL_2/0_Rucina_0_416_0_2_2

New Line.l(r:p1ulv57833-udm2731) Units=km Length=0.0162991 bus1=udm2731.1.2 bus2=p1ulv57833.1.2 switch=n enabled=y phases=2 Linecode=1P_OH_AL_2/0_Rucina_0_416_0_2_2

New Line.l(r:p1ulv1229-udm2725) Units=km Length=0.0193187 bus1=udm2725.1.2 bus2=p1ulv1229.1.2 switch=n enabled=y phases=2 Linecode=1P_OH_AL_2/0_Rucina_0_416_0_2_2

New Line.l(r:p1ulv51628-udm2727) Units=km Length=0.0151936 bus1=udm2727.1.2 bus2=p1ulv51628.1.2 switch=n enabled=y phases=2 Linecode=1P_OH_AL_2/0_Rucina_0_416_0_2_2

New Line.l(r:udm2725-udm2727) Units=km Length=0.0319944 bus1=udm2725.1.2 bus2=udm2727.1.2 switch=n enabled=y phases=2 Linecode=1P_OH_AL_4/0_Zuzara_0_416_0_2_2

New Line.l(r:udm2725-udm2731) Units=km Length=0.0102738 bus1=udm2731.1.2 bus2=udm2725.1.2 switch=n enabled=y phases=2 Linecode=1P_OH_AL_2/0_Rucina_0_416_0_2_2

New Line.l(r:udm2731-udt655lv) Units=km Length=0.0102733 bus1=udt655lv.1.2 bus2=udm2731.1.2 switch=n enabled=y phases=2 Linecode=1P_OH_AL_2/0_Rucina_0_416_0_2_2

New Line.l(r:p1ulv56160-udt656lv) Units=km Length=0.0167171 bus1=udt656lv.1.2 bus2=p1ulv56160.1.2 switch=n enabled=y phases=2 Linecode=1P_OH_AL_2/0_Rucina_0_416_0_2_2
