New Line.l(r:p1ulv189-udt153lv) Units=km Length=0.0412827 bus1=udt153lv.1.2 bus2=p1ulv189.1.2 switch=n enabled=y phases=2 Linecode=1P_OH_AL_4/0_Zuzara_0_416_0_2_2

New Line.l(r:p1ulv51902-udt153lv) Units=km Length=0.0173662 bus1=udt153lv.1.2 bus2=p1ulv51902.1.2 switch=n enabled=y phases=2 Linecode=1P_OH_AL_2/0_Rucina_0_416_0_2_2

New Line.l(r:p1ulv194-udm551) Units=km Length=0.027647 bus1=udm551.1.2 bus2=p1ulv194.1.2 switch=n enabled=y phases=2 Linecode=1P_OH_AL_4/0_Zuzara_0_416_0_2_2

New Line.l(r:udm551-udt153lv) Units=km Length=0.0178511 bus1=udt153lv.1.2 bus2=udm551.1.2 switch=n enabled=y phases=2 Linecode=1P_OH_AL_2/0_Rucina_0_416_0_2_2

New Line.l(r:p1ulv54354-udm553) Units=km Length=0.044587 bus1=udm553.1.2 bus2=p1ulv54354.1.2 switch=n enabled=y phases=2 Linecode=1P_OH_AL_4/0_Zuzara_0_416_0_2_2

New Line.l(r:udm553-udt153lv) Units=km Length=0.0357021 bus1=udt153lv.1.2 bus2=udm553.1.2 switch=n enabled=y phases=2 Linecode=1P_OH_AL_4/0_Zuzara_0_416_0_2_2

New Line.l(r:p1ulv190-udm554) Units=km Length=0.0178752 bus1=udm554.1.2 bus2=p1ulv190.1.2 switch=n enabled=y phases=2 Linecode=1P_OH_AL_2/0_Rucina_0_416_0_2_2

New Line.l(r:p1ulv192-udm555) Units=km Length=0.0183712 bus1=udm555.1.2 bus2=p1ulv192.1.2 switch=n enabled=y phases=2 Linecode=1P_OH_AL_2/0_Rucina_0_416_0_2_2

New Line.l(r:p1ulv52860-udm555) Units=km Length=0.0136275 bus1=udm555.1.2 bus2=p1ulv52860.1.2 switch=n enabled=y phases=2 Linecode=1P_OH_AL_2/0_Rucina_0_416_0_2_2

New Line.l(r:udm554-udm555) Units=km Length=0.0185834 bus1=udm554.1.2 bus2=udm555.1.2 switch=n enabled=y phases=2 Linecode=1P_OH_AL_2/0_Rucina_0_416_0_2_2

New Line.l(r:udm554-udt154lv) Units=km Length=0.0185834 bus1=udt154lv.1.2 bus2=udm554.1.2 switch=n enabled=y phases=2 Linecode=1P_OH_AL_2/0_Rucina_0_416_0_2_2

New Line.l(r:p1ulv202-udm556) Units=km Length=0.021365 bus1=udm556.1.2 bus2=p1ulv202.1.2 switch=n enabled=y phases=2 Linecode=1P_OH_AL_2/0_Rucina_0_416_0_2_2

New Line.l(r:p1ulv49636-udm556) Units=km Length=0.0165305 bus1=udm556.1.2 bus2=p1ulv49636.1.2 switch=n enabled=y phases=2 Linecode=1P_OH_AL_2/0_Rucina_0_416_0_2_2

New Line.l(r:p1ulv56365-udm556) Units=km Length=0.0197466 bus1=udm556.1.2 bus2=p1ulv56365.1.2 switch=n enabled=y phases=2 Linecode=1P_OH_AL_2/0_Rucina_0_416_0_2_2

New Line.l(r:udm556-udt154lv) Units=km Length=0.0185834 bus1=udt154lv.1.2 bus2=udm556.1.2 switch=n enabled=y phases=2 Linecode=1P_OH_AL_2/0_Rucina_0_416_0_2_2

New Line.l(r:p1ulv43227-udt155lv) Units=km Length=0.029021700000000004 bus1=udt155lv.1.2 bus2=p1ulv43227.1.2 switch=n enabled=y phases=2 Linecode=1P_OH_AL_4/0_Zuzara_0_416_0_2_2

New Line.l(r:p1ulv191-udm560) Units=km Length=0.0487522 bus1=udm560.1.2 bus2=p1ulv191.1.2 switch=n enabled=y phases=2 Linecode=1P_OH_AL_4/0_Zuzara_0_416_0_2_2

New Line.l(r:p1ulv42003-udm560) Units=km Length=0.0188889 bus1=udm560.1.2 bus2=p1ulv42003.1.2 switch=n enabled=y phases=2 Linecode=1P_OH_AL_2/0_Rucina_0_416_0_2_2

New Line.l(r:p1ulv46466-udm560) Units=km Length=0.0281375 bus1=udm560.1.2 bus2=p1ulv46466.1.2 switch=n enabled=y phases=2 Linecode=1P_OH_AL_4/0_Zuzara_0_416_0_2_2

New Line.l(r:udm560-udt155lv) Units=km Length=0.0128268 bus1=udt155lv.1.2 bus2=udm560.1.2 switch=n enabled=y phases=2 Linecode=1P_OH_AL_2/0_Rucina_0_416_0_2_2

New Line.l(r:p1ulv39959-udm561) Units=km Length=0.0267636 bus1=udm561.1.2 bus2=p1ulv39959.1.2 switch=n enabled=y phases=2 Linecode=1P_OH_AL_2/0_Rucina_0_416_0_2_2

New Line.l(r:udm561-udt155lv) Units=km Length=0.027474900000000003 bus1=udt155lv.1.2 bus2=udm561.1.2 switch=n enabled=y phases=2 Linecode=1P_OH_AL_4/0_Zuzara_0_416_0_2_2

New Line.l(r:p1ulv48137-udt156lv) Units=km Length=0.01779 bus1=udt156lv.1.2 bus2=p1ulv48137.1.2 switch=n enabled=y phases=2 Linecode=1P_OH_AL_2/0_Rucina_0_416_0_2_2

New Line.l(r:p1ulv193-udm565) Units=km Length=0.0274759 bus1=udm565.1.2 bus2=p1ulv193.1.2 switch=n enabled=y phases=2 Linecode=1P_OH_AL_4/0_Zuzara_0_416_0_2_2

New Line.l(r:p1ulv54309-udm565) Units=km Length=0.031225800000000005 bus1=udm565.1.2 bus2=p1ulv54309.1.2 switch=n enabled=y phases=2 Linecode=1P_OH_AL_4/0_Zuzara_0_416_0_2_2

New Line.l(r:udm565-udt156lv) Units=km Length=0.03485390000000001 bus1=udt156lv.1.2 bus2=udm565.1.2 switch=n enabled=y phases=2 Linecode=1P_OH_AL_4/0_Zuzara_0_416_0_2_2

New Line.l(r:p1ulv46414-udm566) Units=km Length=0.020578 bus1=udm566.1.2 bus2=p1ulv46414.1.2 switch=n enabled=y phases=2 Linecode=1P_OH_AL_2/0_Rucina_0_416_0_2_2

New Line.l(r:p1ulv60791-udm569) Units=km Length=0.0303082 bus1=udm569.1.2 bus2=p1ulv60791.1.2 switch=n enabled=y phases=2 Linecode=1P_OH_AL_4/0_Zuzara_0_416_0_2_2

New Line.l(r:udm566-udm569) Units=km Length=0.0243403 bus1=udm566.1.2 bus2=udm569.1.2 switch=n enabled=y phases=2 Linecode=1P_OH_AL_2/0_Rucina_0_416_0_2_2

New Line.l(r:udm566-udt156lv) Units=km Length=0.018226400000000004 bus1=udt156lv.1.2 bus2=udm566.1.2 switch=n enabled=y phases=2 Linecode=1P_OH_AL_2/0_Rucina_0_416_0_2_2

New Line.l(r:p1ulv195-udm570) Units=km Length=0.0210542 bus1=udm570.1.2 bus2=p1ulv195.1.2 switch=n enabled=y phases=2 Linecode=1P_OH_AL_2/0_Rucina_0_416_0_2_2

New Line.l(r:p1ulv59433-udm570) Units=km Length=0.017682700000000003 bus1=udm570.1.2 bus2=p1ulv59433.1.2 switch=n enabled=y phases=2 Linecode=1P_OH_AL_2/0_Rucina_0_416_0_2_2

New Line.l(r:p1ulv199-udm571) Units=km Length=0.0217881 bus1=udm571.1.2 bus2=p1ulv199.1.2 switch=n enabled=y phases=2 Linecode=1P_OH_AL_2/0_Rucina_0_416_0_2_2

New Line.l(r:p1ulv56933-udm571) Units=km Length=0.0179495 bus1=udm571.1.2 bus2=p1ulv56933.1.2 switch=n enabled=y phases=2 Linecode=1P_OH_AL_2/0_Rucina_0_416_0_2_2

New Line.l(r:udm570-udm571) Units=km Length=0.0160911 bus1=udm570.1.2 bus2=udm571.1.2 switch=n enabled=y phases=2 Linecode=1P_OH_AL_2/0_Rucina_0_416_0_2_2

New Line.l(r:udm570-udt157lv) Units=km Length=0.0167395 bus1=udt157lv.1.2 bus2=udm570.1.2 switch=n enabled=y phases=2 Linecode=1P_OH_AL_2/0_Rucina_0_416_0_2_2

New Line.l(r:p1ulv57800-udm575) Units=km Length=0.019607500000000003 bus1=udm575.1.2 bus2=p1ulv57800.1.2 switch=n enabled=y phases=2 Linecode=1P_OH_AL_2/0_Rucina_0_416_0_2_2

New Line.l(r:p1ulv55328-udm573) Units=km Length=0.0130215 bus1=udm573.1.2 bus2=p1ulv55328.1.2 switch=n enabled=y phases=2 Linecode=1P_OH_AL_2/0_Rucina_0_416_0_2_2

New Line.l(r:p1ulv53232-udm572) Units=km Length=0.020907900000000004 bus1=udm572.1.2 bus2=p1ulv53232.1.2 switch=n enabled=y phases=2 Linecode=1P_OH_AL_2/0_Rucina_0_416_0_2_2

New Line.l(r:udm572-udm573) Units=km Length=0.0584825 bus1=udm573.1.2 bus2=udm572.1.2 switch=n enabled=y phases=2 Linecode=1P_OH_AL_4/0_Zuzara_0_416_0_2_2

New Line.l(r:udm573-udm575) Units=km Length=0.0197453 bus1=udm575.1.2 bus2=udm573.1.2 switch=n enabled=y phases=2 Linecode=1P_OH_AL_2/0_Rucina_0_416_0_2_2

New Line.l(r:udm575-udt157lv) Units=km Length=0.016740300000000003 bus1=udt157lv.1.2 bus2=udm575.1.2 switch=n enabled=y phases=2 Linecode=1P_OH_AL_2/0_Rucina_0_416_0_2_2

New Line.l(r:p1ulv196-udm577) Units=km Length=0.0229505 bus1=udm577.1.2 bus2=p1ulv196.1.2 switch=n enabled=y phases=2 Linecode=1P_OH_AL_2/0_Rucina_0_416_0_2_2

New Line.l(r:p1ulv57222-udm577) Units=km Length=0.0428207 bus1=udm577.1.2 bus2=p1ulv57222.1.2 switch=n enabled=y phases=2 Linecode=1P_OH_AL_4/0_Zuzara_0_416_0_2_2

New Line.l(r:udm577-udt158lv) Units=km Length=0.0193405 bus1=udt158lv.1.2 bus2=udm577.1.2 switch=n enabled=y phases=2 Linecode=1P_OH_AL_2/0_Rucina_0_416_0_2_2

New Line.l(r:p1ulv46352-udm578) Units=km Length=0.0285828 bus1=udm578.1.2 bus2=p1ulv46352.1.2 switch=n enabled=y phases=2 Linecode=1P_OH_AL_4/0_Zuzara_0_416_0_2_2

New Line.l(r:p1ulv51789-udm578) Units=km Length=0.0232052 bus1=udm578.1.2 bus2=p1ulv51789.1.2 switch=n enabled=y phases=2 Linecode=1P_OH_AL_2/0_Rucina_0_416_0_2_2

New Line.l(r:udm578-udt158lv) Units=km Length=0.0193304 bus1=udt158lv.1.2 bus2=udm578.1.2 switch=n enabled=y phases=2 Linecode=1P_OH_AL_2/0_Rucina_0_416_0_2_2

New Line.l(r:p1ulv197-udt159lv) Units=km Length=0.0204594 bus1=udt159lv.1.2 bus2=p1ulv197.1.2 switch=n enabled=y phases=2 Linecode=1P_OH_AL_2/0_Rucina_0_416_0_2_2

New Line.l(r:p1ulv43544-udm582) Units=km Length=0.0238524 bus1=udm582.1.2 bus2=p1ulv43544.1.2 switch=n enabled=y phases=2 Linecode=1P_OH_AL_2/0_Rucina_0_416_0_2_2

New Line.l(r:udm582-udt159lv) Units=km Length=0.0193543 bus1=udt159lv.1.2 bus2=udm582.1.2 switch=n enabled=y phases=2 Linecode=1P_OH_AL_2/0_Rucina_0_416_0_2_2

New Line.l(r:p1ulv45257-udt160lv) Units=km Length=0.0170811 bus1=udt160lv.1.2 bus2=p1ulv45257.1.2 switch=n enabled=y phases=2 Linecode=1P_OH_AL_2/0_Rucina_0_416_0_2_2

New Line.l(r:p1ulv58092-udt160lv) Units=km Length=0.057162500000000005 bus1=udt160lv.1.2 bus2=p1ulv58092.1.2 switch=n enabled=y phases=2 Linecode=1P_OH_AL_4/0_Zuzara_0_416_0_2_2

New Line.l(r:p1ulv198-udm583) Units=km Length=0.047956 bus1=udm583.1.2 bus2=p1ulv198.1.2 switch=n enabled=y phases=2 Linecode=1P_OH_AL_4/0_Zuzara_0_416_0_2_2

New Line.l(r:udm583-udt160lv) Units=km Length=0.0199321 bus1=udt160lv.1.2 bus2=udm583.1.2 switch=n enabled=y phases=2 Linecode=1P_OH_AL_2/0_Rucina_0_416_0_2_2

New Line.l(r:p1ulv200-udt161lv) Units=km Length=0.0222916 bus1=udt161lv.1.2 bus2=p1ulv200.1.2 switch=n enabled=y phases=2 Linecode=1P_OH_AL_2/0_Rucina_0_416_0_2_2

New Line.l(r:p1ulv39593-udm587) Units=km Length=0.0237133 bus1=udm587.1.2 bus2=p1ulv39593.1.2 switch=n enabled=y phases=2 Linecode=1P_OH_AL_2/0_Rucina_0_416_0_2_2

New Line.l(r:udm587-udt161lv) Units=km Length=0.0587201 bus1=udt161lv.1.2 bus2=udm587.1.2 switch=n enabled=y phases=2 Linecode=1P_OH_AL_4/0_Zuzara_0_416_0_2_2

New Line.l(r:p1ulv56235-udm588) Units=km Length=0.0256953 bus1=udm588.1.2 bus2=p1ulv56235.1.2 switch=n enabled=y phases=2 Linecode=1P_OH_AL_2/0_Rucina_0_416_0_2_2

New Line.l(r:udm588-udt161lv) Units=km Length=0.03915 bus1=udt161lv.1.2 bus2=udm588.1.2 switch=n enabled=y phases=2 Linecode=1P_OH_AL_4/0_Zuzara_0_416_0_2_2

New Line.l(r:p1ulv201-udm589) Units=km Length=0.0210833 bus1=udm589.1.2 bus2=p1ulv201.1.2 switch=n enabled=y phases=2 Linecode=1P_OH_AL_2/0_Rucina_0_416_0_2_2

New Line.l(r:p1ulv57220-udm589) Units=km Length=0.0135613 bus1=udm589.1.2 bus2=p1ulv57220.1.2 switch=n enabled=y phases=2 Linecode=1P_OH_AL_2/0_Rucina_0_416_0_2_2

New Line.l(r:udm589-udt162lv) Units=km Length=0.0165634 bus1=udt162lv.1.2 bus2=udm589.1.2 switch=n enabled=y phases=2 Linecode=1P_OH_AL_2/0_Rucina_0_416_0_2_2

New Line.l(r:p1ulv53985-udm590) Units=km Length=0.0190001 bus1=udm590.1.2 bus2=p1ulv53985.1.2 switch=n enabled=y phases=2 Linecode=1P_OH_AL_2/0_Rucina_0_416_0_2_2

New Line.l(r:udm590-udt162lv) Units=km Length=0.0344746 bus1=udt162lv.1.2 bus2=udm590.1.2 switch=n enabled=y phases=2 Linecode=1P_OH_AL_4/0_Zuzara_0_416_0_2_2

New Line.l(r:p1ulv42005-udt163lv) Units=km Length=0.0157764 bus1=udt163lv.1.2 bus2=p1ulv42005.1.2 switch=n enabled=y phases=2 Linecode=1P_UG_AL_1/0_Brenau_0_416_0_2_2

New Line.l(r:p1ulv203-udm592) Units=km Length=0.0169369 bus1=udm592.1.2 bus2=p1ulv203.1.2 switch=n enabled=y phases=2 Linecode=1P_UG_AL_1/0_Brenau_0_416_0_2_2

New Line.l(r:udm592-udt163lv) Units=km Length=0.0156258 bus1=udt163lv.1.2 bus2=udm592.1.2 switch=n enabled=y phases=2 Linecode=1P_UG_AL_1/0_Brenau_0_416_0_2_2

New Line.l(r:p1ulv53642-udm594) Units=km Length=0.0209077 bus1=udm594.1.2 bus2=p1ulv53642.1.2 switch=n enabled=y phases=2 Linecode=1P_UG_AL_1/0_Brenau_0_416_0_2_2

New Line.l(r:udm594-udt163lv) Units=km Length=0.014694 bus1=udt163lv.1.2 bus2=udm594.1.2 switch=n enabled=y phases=2 Linecode=1P_UG_AL_1/0_Brenau_0_416_0_2_2

New Line.l(r:p1ulv204-udm595) Units=km Length=0.0189547 bus1=udm595.1.2 bus2=p1ulv204.1.2 switch=n enabled=y phases=2 Linecode=1P_UG_AL_1/0_Brenau_0_416_0_2_2

New Line.l(r:p1ulv40093-udm595) Units=km Length=0.0220307 bus1=udm595.1.2 bus2=p1ulv40093.1.2 switch=n enabled=y phases=2 Linecode=1P_UG_AL_1/0_Brenau_0_416_0_2_2

New Line.l(r:p1ulv53340-udm599) Units=km Length=0.0198652 bus1=udm599.1.2 bus2=p1ulv53340.1.2 switch=n enabled=y phases=2 Linecode=1P_UG_AL_1/0_Brenau_0_416_0_2_2

New Line.l(r:udm595-udm599) Units=km Length=0.0151264 bus1=udm595.1.2 bus2=udm599.1.2 switch=n enabled=y phases=2 Linecode=1P_UG_AL_1/0_Brenau_0_416_0_2_2

New Line.l(r:udm595-udt164lv) Units=km Length=0.0079787 bus1=udt164lv.1.2 bus2=udm595.1.2 switch=n enabled=y phases=2 Linecode=1P_UG_AL_4/0_Sweetbriar_0_416_0_2_2

New Line.l(r:p1ulv52227-udm598) Units=km Length=0.0210957 bus1=udm598.1.2 bus2=p1ulv52227.1.2 switch=n enabled=y phases=2 Linecode=1P_UG_AL_1/0_Brenau_0_416_0_2_2

New Line.l(r:p1ulv39960-udm596) Units=km Length=0.0167807 bus1=udm596.1.2 bus2=p1ulv39960.1.2 switch=n enabled=y phases=2 Linecode=1P_UG_AL_1/0_Brenau_0_416_0_2_2

New Line.l(r:udm596-udm598) Units=km Length=0.008661510000000002 bus1=udm598.1.2 bus2=udm596.1.2 switch=n enabled=y phases=2 Linecode=1P_UG_AL_1/0_Brenau_0_416_0_2_2

New Line.l(r:udm598-udt164lv) Units=km Length=0.0184344 bus1=udt164lv.1.2 bus2=udm598.1.2 switch=n enabled=y phases=2 Linecode=1P_UG_AL_1/0_Brenau_0_416_0_2_2

New Line.l(r:p1ulv58094-udt165lv) Units=km Length=0.0182874 bus1=udt165lv.1.2 bus2=p1ulv58094.1.2 switch=n enabled=y phases=2 Linecode=1P_OH_AL_2/0_Rucina_0_416_0_2_2

New Line.l(r:p1ulv205-udm600) Units=km Length=0.0172977 bus1=udm600.1.2 bus2=p1ulv205.1.2 switch=n enabled=y phases=2 Linecode=1P_OH_AL_2/0_Rucina_0_416_0_2_2

New Line.l(r:p1ulv49941-udm603) Units=km Length=0.0188218 bus1=udm603.1.2 bus2=p1ulv49941.1.2 switch=n enabled=y phases=2 Linecode=1P_OH_AL_2/0_Rucina_0_416_0_2_2

New Line.l(r:p1ulv60380-udm603) Units=km Length=0.019650000000000004 bus1=udm603.1.2 bus2=p1ulv60380.1.2 switch=n enabled=y phases=2 Linecode=1P_OH_AL_2/0_Rucina_0_416_0_2_2

New Line.l(r:udm600-udm603) Units=km Length=0.019168900000000003 bus1=udm600.1.2 bus2=udm603.1.2 switch=n enabled=y phases=2 Linecode=1P_OH_AL_2/0_Rucina_0_416_0_2_2

New Line.l(r:udm600-udt165lv) Units=km Length=0.0100457 bus1=udt165lv.1.2 bus2=udm600.1.2 switch=n enabled=y phases=2 Linecode=1P_OH_AL_2/0_Rucina_0_416_0_2_2

New Line.l(r:p1ulv41563-udm601) Units=km Length=0.034147300000000005 bus1=udm601.1.2 bus2=p1ulv41563.1.2 switch=n enabled=y phases=2 Linecode=1P_OH_AL_4/0_Zuzara_0_416_0_2_2

New Line.l(r:p1ulv49638-udm601) Units=km Length=0.0149744 bus1=udm601.1.2 bus2=p1ulv49638.1.2 switch=n enabled=y phases=2 Linecode=1P_OH_AL_2/0_Rucina_0_416_0_2_2

New Line.l(r:p1ulv58558-udm605) Units=km Length=0.021286 bus1=udm605.1.2 bus2=p1ulv58558.1.2 switch=n enabled=y phases=2 Linecode=1P_OH_AL_2/0_Rucina_0_416_0_2_2

New Line.l(r:udm601-udm605) Units=km Length=0.018133600000000003 bus1=udm601.1.2 bus2=udm605.1.2 switch=n enabled=y phases=2 Linecode=1P_OH_AL_2/0_Rucina_0_416_0_2_2

New Line.l(r:udm601-udt165lv) Units=km Length=0.0100492 bus1=udt165lv.1.2 bus2=udm601.1.2 switch=n enabled=y phases=2 Linecode=1P_OH_AL_2/0_Rucina_0_416_0_2_2

New Line.l(r:p1ulv55414-udm608) Units=km Length=0.0181334 bus1=udm608.1.2 bus2=p1ulv55414.1.2 switch=n enabled=y phases=2 Linecode=1P_UG_AL_1/0_Brenau_0_416_0_2_2

New Line.l(r:udm608-udt166lv) Units=km Length=0.0187931 bus1=udt166lv.1.2 bus2=udm608.1.2 switch=n enabled=y phases=2 Linecode=1P_UG_AL_1/0_Brenau_0_416_0_2_2

New Line.l(r:p1ulv57906-udm609) Units=km Length=0.0160482 bus1=udm609.1.2 bus2=p1ulv57906.1.2 switch=n enabled=y phases=2 Linecode=1P_UG_AL_1/0_Brenau_0_416_0_2_2

New Line.l(r:p1ulv206-udm607) Units=km Length=0.0286064 bus1=udm607.1.2 bus2=p1ulv206.1.2 switch=n enabled=y phases=2 Linecode=1P_UG_AL_1/0_Brenau_0_416_0_2_2

New Line.l(r:udm607-udm609) Units=km Length=0.0171207 bus1=udm609.1.2 bus2=udm607.1.2 switch=n enabled=y phases=2 Linecode=1P_UG_AL_1/0_Brenau_0_416_0_2_2

New Line.l(r:udm609-udt166lv) Units=km Length=0.0386607 bus1=udt166lv.1.2 bus2=udm609.1.2 switch=n enabled=y phases=2 Linecode=1P_UG_AL_1/0_Brenau_0_416_0_2_2

New Line.l(r:p1ulv209-udt169lv) Units=km Length=0.0198103 bus1=udt169lv.1.2 bus2=p1ulv209.1.2 switch=n enabled=y phases=2 Linecode=1P_UG_AL_1/0_Brenau_0_416_0_2_2

New Line.l(r:p1ulv52342-udm617) Units=km Length=0.0245818 bus1=udm617.1.2 bus2=p1ulv52342.1.2 switch=n enabled=y phases=2 Linecode=1P_UG_AL_1/0_Brenau_0_416_0_2_2

New Line.l(r:udm617-udt169lv) Units=km Length=0.029870400000000002 bus1=udt169lv.1.2 bus2=udm617.1.2 switch=n enabled=y phases=2 Linecode=1P_UG_AL_1/0_Brenau_0_416_0_2_2

New Line.l(r:p1ulv59606-udm618) Units=km Length=0.0188204 bus1=udm618.1.2 bus2=p1ulv59606.1.2 switch=n enabled=y phases=2 Linecode=1P_UG_AL_1/0_Brenau_0_416_0_2_2

New Line.l(r:udm618-udt169lv) Units=km Length=0.0193616 bus1=udt169lv.1.2 bus2=udm618.1.2 switch=n enabled=y phases=2 Linecode=1P_UG_AL_1/0_Brenau_0_416_0_2_2

New Line.l(r:p1ulv1792-udm3877) Units=km Length=0.018216000000000003 bus1=udm3877.1.2 bus2=p1ulv1792.1.2 switch=n enabled=y phases=2 Linecode=1P_OH_AL_2/0_Rucina_0_416_0_2_2

New Line.l(r:p1ulv57320-udm3882) Units=km Length=0.017565300000000002 bus1=udm3882.1.2 bus2=p1ulv57320.1.2 switch=n enabled=y phases=2 Linecode=1P_OH_AL_2/0_Rucina_0_416_0_2_2

New Line.l(r:p1ulv1795-udm3878) Units=km Length=0.0157596 bus1=udm3878.1.2 bus2=p1ulv1795.1.2 switch=n enabled=y phases=2 Linecode=1P_OH_AL_2/0_Rucina_0_416_0_2_2

New Line.l(r:udm3878-udm3882) Units=km Length=0.0483237 bus1=udm3882.1.2 bus2=udm3878.1.2 switch=n enabled=y phases=2 Linecode=1P_OH_AL_4/0_Zuzara_0_416_0_2_2

New Line.l(r:udm3877-udm3882) Units=km Length=0.01244 bus1=udm3877.1.2 bus2=udm3882.1.2 switch=n enabled=y phases=2 Linecode=1P_OH_AL_2/0_Rucina_0_416_0_2_2

New Line.l(r:udm3877-udt944lv) Units=km Length=0.011023200000000002 bus1=udt944lv.1.2 bus2=udm3877.1.2 switch=n enabled=y phases=2 Linecode=1P_OH_AL_2/0_Rucina_0_416_0_2_2

New Line.l(r:p1ulv50057-udm3880) Units=km Length=0.014620200000000002 bus1=udm3880.1.2 bus2=p1ulv50057.1.2 switch=n enabled=y phases=2 Linecode=1P_OH_AL_2/0_Rucina_0_416_0_2_2

New Line.l(r:p1ulv43527-udm3879) Units=km Length=0.0172609 bus1=udm3879.1.2 bus2=p1ulv43527.1.2 switch=n enabled=y phases=2 Linecode=1P_OH_AL_2/0_Rucina_0_416_0_2_2

New Line.l(r:p1ulv55056-udm3879) Units=km Length=0.0174501 bus1=udm3879.1.2 bus2=p1ulv55056.1.2 switch=n enabled=y phases=2 Linecode=1P_OH_AL_2/0_Rucina_0_416_0_2_2

New Line.l(r:udm3879-udm3880) Units=km Length=0.0200699 bus1=udm3880.1.2 bus2=udm3879.1.2 switch=n enabled=y phases=2 Linecode=1P_OH_AL_2/0_Rucina_0_416_0_2_2

New Line.l(r:udm3880-udt944lv) Units=km Length=0.0110356 bus1=udt944lv.1.2 bus2=udm3880.1.2 switch=n enabled=y phases=2 Linecode=1P_OH_AL_2/0_Rucina_0_416_0_2_2

New Line.l(r:p1ulv55702-udt945lv) Units=km Length=0.0180829 bus1=udt945lv.1.2 bus2=p1ulv55702.1.2 switch=n enabled=y phases=2 Linecode=1P_OH_AL_2/0_Rucina_0_416_0_2_2

New Line.l(r:p1ulv1793-udm3883) Units=km Length=0.0160092 bus1=udm3883.1.2 bus2=p1ulv1793.1.2 switch=n enabled=y phases=2 Linecode=1P_OH_AL_2/0_Rucina_0_416_0_2_2

New Line.l(r:udm3883-udt945lv) Units=km Length=0.0123764 bus1=udt945lv.1.2 bus2=udm3883.1.2 switch=n enabled=y phases=2 Linecode=1P_OH_AL_2/0_Rucina_0_416_0_2_2

New Line.l(r:p1ulv60120-udm3885) Units=km Length=0.0209528 bus1=udm3885.1.2 bus2=p1ulv60120.1.2 switch=n enabled=y phases=2 Linecode=1P_OH_AL_2/0_Rucina_0_416_0_2_2

New Line.l(r:udm3885-udt945lv) Units=km Length=0.030466 bus1=udt945lv.1.2 bus2=udm3885.1.2 switch=n enabled=y phases=2 Linecode=1P_OH_AL_4/0_Zuzara_0_416_0_2_2

New Line.l(r:p1ulv1796-udm3889) Units=km Length=0.014854600000000003 bus1=udm3889.1.2 bus2=p1ulv1796.1.2 switch=n enabled=y phases=2 Linecode=1P_UG_AL_1/0_Brenau_0_416_0_2_2

New Line.l(r:p1ulv61194-udm3889) Units=km Length=0.0159104 bus1=udm3889.1.2 bus2=p1ulv61194.1.2 switch=n enabled=y phases=2 Linecode=1P_UG_AL_1/0_Brenau_0_416_0_2_2

New Line.l(r:udm3889-udt947lv) Units=km Length=0.0181938 bus1=udt947lv.1.2 bus2=udm3889.1.2 switch=n enabled=y phases=2 Linecode=1P_UG_AL_1/0_Brenau_0_416_0_2_2

New Line.l(r:p1ulv1798-udm3890) Units=km Length=0.0200048 bus1=udm3890.1.2 bus2=p1ulv1798.1.2 switch=n enabled=y phases=2 Linecode=1P_UG_AL_1/0_Brenau_0_416_0_2_2

New Line.l(r:udm3890-udt947lv) Units=km Length=0.0153574 bus1=udt947lv.1.2 bus2=udm3890.1.2 switch=n enabled=y phases=2 Linecode=1P_UG_AL_1/0_Brenau_0_416_0_2_2

New Line.l(r:p1ulv46701-udt949lv) Units=km Length=0.0259591 bus1=udt949lv.1.2 bus2=p1ulv46701.1.2 switch=n enabled=y phases=2 Linecode=1P_OH_AL_2/0_Rucina_0_416_0_2_2

New Line.l(r:p1ulv55638-udt949lv) Units=km Length=0.0288286 bus1=udt949lv.1.2 bus2=p1ulv55638.1.2 switch=n enabled=y phases=2 Linecode=1P_OH_AL_4/0_Zuzara_0_416_0_2_2

New Line.l(r:p1ulv56852-udt949lv) Units=km Length=0.0264531 bus1=udt949lv.1.2 bus2=p1ulv56852.1.2 switch=n enabled=y phases=2 Linecode=1P_OH_AL_2/0_Rucina_0_416_0_2_2

New Line.l(r:p1ulv58133-udt949lv) Units=km Length=0.0302677 bus1=udt949lv.1.2 bus2=p1ulv58133.1.2 switch=n enabled=y phases=2 Linecode=1P_OH_AL_4/0_Zuzara_0_416_0_2_2

New Line.l(r:p1ulv1799-udm3898) Units=km Length=0.019729 bus1=udm3898.1.2 bus2=p1ulv1799.1.2 switch=n enabled=y phases=2 Linecode=1P_OH_AL_2/0_Rucina_0_416_0_2_2

New Line.l(r:p1ulv1807-udm3899) Units=km Length=0.0214284 bus1=udm3899.1.2 bus2=p1ulv1807.1.2 switch=n enabled=y phases=2 Linecode=1P_OH_AL_2/0_Rucina_0_416_0_2_2

New Line.l(r:udm3898-udm3899) Units=km Length=0.0302242 bus1=udm3898.1.2 bus2=udm3899.1.2 switch=n enabled=y phases=2 Linecode=1P_OH_AL_4/0_Zuzara_0_416_0_2_2

New Line.l(r:udm3898-udt949lv) Units=km Length=0.016758 bus1=udt949lv.1.2 bus2=udm3898.1.2 switch=n enabled=y phases=2 Linecode=1P_OH_AL_2/0_Rucina_0_416_0_2_2

New Line.l(r:p1ulv57951-udt950lv) Units=km Length=0.0153077 bus1=udt950lv.1.2 bus2=p1ulv57951.1.2 switch=n enabled=y phases=2 Linecode=1P_UG_AL_1/0_Brenau_0_416_0_2_2

New Line.l(r:p1ulv1800-udm3904) Units=km Length=0.015281800000000002 bus1=udm3904.1.2 bus2=p1ulv1800.1.2 switch=n enabled=y phases=2 Linecode=1P_UG_AL_1/0_Brenau_0_416_0_2_2

New Line.l(r:udm3904-udt950lv) Units=km Length=0.00970287 bus1=udt950lv.1.2 bus2=udm3904.1.2 switch=n enabled=y phases=2 Linecode=1P_UG_AL_1/0_Brenau_0_416_0_2_2

New Line.l(r:p1ulv50253-udm3905) Units=km Length=0.0143514 bus1=udm3905.1.2 bus2=p1ulv50253.1.2 switch=n enabled=y phases=2 Linecode=1P_UG_AL_1/0_Brenau_0_416_0_2_2

New Line.l(r:udm3905-udt950lv) Units=km Length=0.00971231 bus1=udt950lv.1.2 bus2=udm3905.1.2 switch=n enabled=y phases=2 Linecode=1P_UG_AL_1/0_Brenau_0_416_0_2_2

New Line.l(r:p1ulv40004-udt951lv) Units=km Length=0.0192935 bus1=udt951lv.1.2 bus2=p1ulv40004.1.2 switch=n enabled=y phases=2 Linecode=1P_UG_AL_1/0_Brenau_0_416_0_2_2

New Line.l(r:p1ulv1805-udm3909) Units=km Length=0.013474 bus1=udm3909.1.2 bus2=p1ulv1805.1.2 switch=n enabled=y phases=2 Linecode=1P_UG_AL_1/0_Brenau_0_416_0_2_2

New Line.l(r:p1ulv1802-udm3908) Units=km Length=0.0151018 bus1=udm3908.1.2 bus2=p1ulv1802.1.2 switch=n enabled=y phases=2 Linecode=1P_UG_AL_1/0_Brenau_0_416_0_2_2

New Line.l(r:p1ulv56225-udm3908) Units=km Length=0.0185785 bus1=udm3908.1.2 bus2=p1ulv56225.1.2 switch=n enabled=y phases=2 Linecode=1P_UG_AL_1/0_Brenau_0_416_0_2_2

New Line.l(r:p1ulv54816-udm3912) Units=km Length=0.0187538 bus1=udm3912.1.2 bus2=p1ulv54816.1.2 switch=n enabled=y phases=2 Linecode=1P_UG_AL_1/0_Brenau_0_416_0_2_2

New Line.l(r:p1ulv55118-udm3913) Units=km Length=0.0137713 bus1=udm3913.1.2 bus2=p1ulv55118.1.2 switch=n enabled=y phases=2 Linecode=1P_UG_AL_1/0_Brenau_0_416_0_2_2

New Line.l(r:udm3912-udm3913) Units=km Length=0.00856507 bus1=udm3912.1.2 bus2=udm3913.1.2 switch=n enabled=y phases=2 Linecode=1P_UG_AL_1/0_Brenau_0_416_0_2_2

New Line.l(r:udm3908-udm3912) Units=km Length=0.0171301 bus1=udm3908.1.2 bus2=udm3912.1.2 switch=n enabled=y phases=2 Linecode=1P_UG_AL_1/0_Brenau_0_416_0_2_2

New Line.l(r:udm3908-udm3909) Units=km Length=0.00965238 bus1=udm3909.1.2 bus2=udm3908.1.2 switch=n enabled=y phases=2 Linecode=1P_UG_AL_4/0_Sweetbriar_0_416_0_2_2

New Line.l(r:udm3909-udt951lv) Units=km Length=0.0171525 bus1=udt951lv.1.2 bus2=udm3909.1.2 switch=n enabled=y phases=2 Linecode=1P_UG_AL_4/0_Sweetbriar_0_416_0_2_2

New Line.l(r:p1ulv56670-udm3915) Units=km Length=0.0176601 bus1=udm3915.1.2 bus2=p1ulv56670.1.2 switch=n enabled=y phases=2 Linecode=1P_UG_AL_1/0_Brenau_0_416_0_2_2

New Line.l(r:p1ulv51644-udm3911) Units=km Length=0.0188362 bus1=udm3911.1.2 bus2=p1ulv51644.1.2 switch=n enabled=y phases=2 Linecode=1P_UG_AL_1/0_Brenau_0_416_0_2_2

New Line.l(r:p1ulv1801-udm3907) Units=km Length=0.0175347 bus1=udm3907.1.2 bus2=p1ulv1801.1.2 switch=n enabled=y phases=2 Linecode=1P_UG_AL_1/0_Brenau_0_416_0_2_2

New Line.l(r:p1ulv58605-udm3916) Units=km Length=0.021743400000000003 bus1=udm3916.1.2 bus2=p1ulv58605.1.2 switch=n enabled=y phases=2 Linecode=1P_UG_AL_1/0_Brenau_0_416_0_2_2

New Line.l(r:udm3907-udm3916) Units=km Length=0.0533446 bus1=udm3907.1.2 bus2=udm3916.1.2 switch=n enabled=y phases=2 Linecode=1P_UG_AL_1/0_Brenau_0_416_0_2_2

New Line.l(r:udm3907-udm3911) Units=km Length=0.0261329 bus1=udm3911.1.2 bus2=udm3907.1.2 switch=n enabled=y phases=2 Linecode=1P_UG_AL_1/0_Brenau_0_416_0_2_2

New Line.l(r:udm3911-udm3915) Units=km Length=0.035288 bus1=udm3915.1.2 bus2=udm3911.1.2 switch=n enabled=y phases=2 Linecode=1P_UG_AL_1/0_Brenau_0_416_0_2_2

New Line.l(r:udm3915-udt951lv) Units=km Length=0.00758042 bus1=udt951lv.1.2 bus2=udm3915.1.2 switch=n enabled=y phases=2 Linecode=1P_UG_AL_4/0_Sweetbriar_0_416_0_2_2

New Line.l(r:p1ulv1803-udt952lv) Units=km Length=0.0213135 bus1=udt952lv.1.2 bus2=p1ulv1803.1.2 switch=n enabled=y phases=2 Linecode=1P_UG_AL_1/0_Brenau_0_416_0_2_2

New Line.l(r:p1ulv48120-udt952lv) Units=km Length=0.0180155 bus1=udt952lv.1.2 bus2=p1ulv48120.1.2 switch=n enabled=y phases=2 Linecode=1P_UG_AL_1/0_Brenau_0_416_0_2_2

New Line.l(r:p1ulv51194-udm3919) Units=km Length=0.015707 bus1=udm3919.1.2 bus2=p1ulv51194.1.2 switch=n enabled=y phases=2 Linecode=1P_UG_AL_1/0_Brenau_0_416_0_2_2

New Line.l(r:udm3919-udt952lv) Units=km Length=0.0083028 bus1=udt952lv.1.2 bus2=udm3919.1.2 switch=n enabled=y phases=2 Linecode=1P_UG_AL_1/0_Brenau_0_416_0_2_2

New Line.l(r:p1ulv58034-udt953lv) Units=km Length=0.0184744 bus1=udt953lv.1.2 bus2=p1ulv58034.1.2 switch=n enabled=y phases=2 Linecode=1P_OH_AL_2/0_Rucina_0_416_0_2_2

New Line.l(r:p1ulv1804-udm3920) Units=km Length=0.020007 bus1=udm3920.1.2 bus2=p1ulv1804.1.2 switch=n enabled=y phases=2 Linecode=1P_OH_AL_2/0_Rucina_0_416_0_2_2

New Line.l(r:p1ulv55544-udm3923) Units=km Length=0.0214918 bus1=udm3923.1.2 bus2=p1ulv55544.1.2 switch=n enabled=y phases=2 Linecode=1P_OH_AL_2/0_Rucina_0_416_0_2_2

New Line.l(r:udm3920-udm3923) Units=km Length=0.0135604 bus1=udm3920.1.2 bus2=udm3923.1.2 switch=n enabled=y phases=2 Linecode=1P_OH_AL_2/0_Rucina_0_416_0_2_2

New Line.l(r:udm3920-udt953lv) Units=km Length=0.0316593 bus1=udt953lv.1.2 bus2=udm3920.1.2 switch=n enabled=y phases=2 Linecode=1P_OH_AL_4/0_Zuzara_0_416_0_2_2

New Line.l(r:p1ulv52899-udm3922) Units=km Length=0.0181291 bus1=udm3922.1.2 bus2=p1ulv52899.1.2 switch=n enabled=y phases=2 Linecode=1P_OH_AL_2/0_Rucina_0_416_0_2_2

New Line.l(r:p1ulv61005-udm3922) Units=km Length=0.0162171 bus1=udm3922.1.2 bus2=p1ulv61005.1.2 switch=n enabled=y phases=2 Linecode=1P_OH_AL_2/0_Rucina_0_416_0_2_2

New Line.l(r:p1ulv51436-udm3921) Units=km Length=0.0183172 bus1=udm3921.1.2 bus2=p1ulv51436.1.2 switch=n enabled=y phases=2 Linecode=1P_OH_AL_2/0_Rucina_0_416_0_2_2

New Line.l(r:udm3921-udm3922) Units=km Length=0.018099 bus1=udm3922.1.2 bus2=udm3921.1.2 switch=n enabled=y phases=2 Linecode=1P_OH_AL_2/0_Rucina_0_416_0_2_2

New Line.l(r:udm3922-udt953lv) Units=km Length=0.0180987 bus1=udt953lv.1.2 bus2=udm3922.1.2 switch=n enabled=y phases=2 Linecode=1P_OH_AL_2/0_Rucina_0_416_0_2_2

New Line.l(r:p1ulv48511-udt954lv) Units=km Length=0.023444 bus1=udt954lv.1.2 bus2=p1ulv48511.1.2 switch=n enabled=y phases=2 Linecode=1P_UG_AL_1/0_Brenau_0_416_0_2_2

New Line.l(r:p1ulv53096-udt954lv) Units=km Length=0.0235088 bus1=udt954lv.1.2 bus2=p1ulv53096.1.2 switch=n enabled=y phases=2 Linecode=1P_UG_AL_1/0_Brenau_0_416_0_2_2

New Line.l(r:p1ulv60644-udt954lv) Units=km Length=0.0272706 bus1=udt954lv.1.2 bus2=p1ulv60644.1.2 switch=n enabled=y phases=2 Linecode=1P_UG_AL_1/0_Brenau_0_416_0_2_2

New Line.l(r:p1ulv1806-udm3926) Units=km Length=0.0252836 bus1=udm3926.1.2 bus2=p1ulv1806.1.2 switch=n enabled=y phases=2 Linecode=1P_UG_AL_1/0_Brenau_0_416_0_2_2

New Line.l(r:p1ulv56174-udm3926) Units=km Length=0.0313509 bus1=udm3926.1.2 bus2=p1ulv56174.1.2 switch=n enabled=y phases=2 Linecode=1P_UG_AL_1/0_Brenau_0_416_0_2_2

New Line.l(r:p1ulv59586-udm3930) Units=km Length=0.0159474 bus1=udm3930.1.2 bus2=p1ulv59586.1.2 switch=n enabled=y phases=2 Linecode=1P_UG_AL_1/0_Brenau_0_416_0_2_2

New Line.l(r:udm3926-udm3930) Units=km Length=0.018741700000000003 bus1=udm3926.1.2 bus2=udm3930.1.2 switch=n enabled=y phases=2 Linecode=1P_UG_AL_1/0_Brenau_0_416_0_2_2

New Line.l(r:udm3926-udt954lv) Units=km Length=0.00937951 bus1=udt954lv.1.2 bus2=udm3926.1.2 switch=n enabled=y phases=2 Linecode=1P_UG_AL_4/0_Sweetbriar_0_416_0_2_2

New Line.l(r:p1ulv1808-udt955lv) Units=km Length=0.016363300000000004 bus1=udt955lv.1.2 bus2=p1ulv1808.1.2 switch=n enabled=y phases=2 Linecode=1P_UG_AL_1/0_Brenau_0_416_0_2_2

New Line.l(r:p1ulv52614-udm3933) Units=km Length=0.0121375 bus1=udm3933.1.2 bus2=p1ulv52614.1.2 switch=n enabled=y phases=2 Linecode=1P_UG_AL_1/0_Brenau_0_416_0_2_2

New Line.l(r:udm3933-udt955lv) Units=km Length=0.00873028 bus1=udt955lv.1.2 bus2=udm3933.1.2 switch=n enabled=y phases=2 Linecode=1P_UG_AL_1/0_Brenau_0_416_0_2_2

New Line.l(r:p1ulv60876-udm3934) Units=km Length=0.0155912 bus1=udm3934.1.2 bus2=p1ulv60876.1.2 switch=n enabled=y phases=2 Linecode=1P_UG_AL_1/0_Brenau_0_416_0_2_2

New Line.l(r:udm3934-udt955lv) Units=km Length=0.00873758 bus1=udt955lv.1.2 bus2=udm3934.1.2 switch=n enabled=y phases=2 Linecode=1P_UG_AL_1/0_Brenau_0_416_0_2_2

New Line.l(r:p1ulv3439-udt1621lv) Units=km Length=0.0414763 bus1=udt1621lv.1.2 bus2=p1ulv3439.1.2 switch=n enabled=y phases=2 Linecode=1P_UG_AL_1/0_Brenau_0_416_0_2_2

New Line.l(r:p1ulv3440-udt1621lv) Units=km Length=0.0350495 bus1=udt1621lv.1.2 bus2=p1ulv3440.1.2 switch=n enabled=y phases=2 Linecode=1P_UG_AL_1/0_Brenau_0_416_0_2_2
