New Line.l(r:p1ulv1073-udt580lv) Units=km Length=0.0145107 bus1=udt580lv.1.2 bus2=p1ulv1073.1.2 switch=n enabled=y phases=2 Linecode=1P_OH_AL_2/0_Rucina_0_416_0_2_2

New Line.l(r:p1ulv33664-udt580lv) Units=km Length=0.013216000000000002 bus1=udt580lv.1.2 bus2=p1ulv33664.1.2 switch=n enabled=y phases=2 Linecode=1P_OH_AL_2/0_Rucina_0_416_0_2_2

New Line.l(r:p1ulv2975-udm2409) Units=km Length=0.016598 bus1=udm2409.1.2 bus2=p1ulv2975.1.2 switch=n enabled=y phases=2 Linecode=1P_OH_AL_2/0_Rucina_0_416_0_2_2

New Line.l(r:udm2409-udt580lv) Units=km Length=0.0197718 bus1=udt580lv.1.2 bus2=udm2409.1.2 switch=n enabled=y phases=2 Linecode=1P_OH_AL_2/0_Rucina_0_416_0_2_2

New Line.l(r:p1ulv1074-udt581lv) Units=km Length=0.0163698 bus1=udt581lv.1.2 bus2=p1ulv1074.1.2 switch=n enabled=y phases=2 Linecode=1P_OH_AL_2/0_Rucina_0_416_0_2_2

New Line.l(r:p1ulv3001-udt581lv) Units=km Length=0.0147726 bus1=udt581lv.1.2 bus2=p1ulv3001.1.2 switch=n enabled=y phases=2 Linecode=1P_OH_AL_2/0_Rucina_0_416_0_2_2

New Line.l(r:p1ulv2967-udm2412) Units=km Length=0.0144874 bus1=udm2412.1.2 bus2=p1ulv2967.1.2 switch=n enabled=y phases=2 Linecode=1P_OH_AL_2/0_Rucina_0_416_0_2_2

New Line.l(r:p1ulv34706-udm2417) Units=km Length=0.0126089 bus1=udm2417.1.2 bus2=p1ulv34706.1.2 switch=n enabled=y phases=2 Linecode=1P_OH_AL_2/0_Rucina_0_416_0_2_2

New Line.l(r:udm2412-udm2417) Units=km Length=0.035512 bus1=udm2412.1.2 bus2=udm2417.1.2 switch=n enabled=y phases=2 Linecode=1P_OH_AL_4/0_Zuzara_0_416_0_2_2

New Line.l(r:udm2412-udt581lv) Units=km Length=0.0183566 bus1=udt581lv.1.2 bus2=udm2412.1.2 switch=n enabled=y phases=2 Linecode=1P_OH_AL_2/0_Rucina_0_416_0_2_2

New Line.l(r:p1ulv2971-udm2413) Units=km Length=0.0174193 bus1=udm2413.1.2 bus2=p1ulv2971.1.2 switch=n enabled=y phases=2 Linecode=1P_OH_AL_2/0_Rucina_0_416_0_2_2

New Line.l(r:p1ulv2987-udm2413) Units=km Length=0.016692000000000002 bus1=udm2413.1.2 bus2=p1ulv2987.1.2 switch=n enabled=y phases=2 Linecode=1P_OH_AL_2/0_Rucina_0_416_0_2_2

New Line.l(r:p1ulv2983-udm2414) Units=km Length=0.0145737 bus1=udm2414.1.2 bus2=p1ulv2983.1.2 switch=n enabled=y phases=2 Linecode=1P_UG_AL_1/0_Brenau_0_416_0_2_2

New Line.l(r:udm2413-udm2414) Units=km Length=0.0183566 bus1=udm2413.1.2 bus2=udm2414.1.2 switch=n enabled=y phases=2 Linecode=1P_OH_AL_2/0_Rucina_0_416_0_2_2

New Line.l(r:udm2413-udt581lv) Units=km Length=0.018366600000000004 bus1=udt581lv.1.2 bus2=udm2413.1.2 switch=n enabled=y phases=2 Linecode=1P_OH_AL_2/0_Rucina_0_416_0_2_2

New Line.l(r:p1ulv1075-udm2418) Units=km Length=0.020161 bus1=udm2418.1.2 bus2=p1ulv1075.1.2 switch=n enabled=y phases=2 Linecode=1P_UG_AL_1/0_Brenau_0_416_0_2_2

New Line.l(r:p1ulv2969-udm2419) Units=km Length=0.0188 bus1=udm2419.1.2 bus2=p1ulv2969.1.2 switch=n enabled=y phases=2 Linecode=1P_UG_AL_1/0_Brenau_0_416_0_2_2

New Line.l(r:p1ulv2997-udm2420) Units=km Length=0.0204603 bus1=udm2420.1.2 bus2=p1ulv2997.1.2 switch=n enabled=y phases=2 Linecode=1P_UG_AL_1/0_Brenau_0_416_0_2_2

New Line.l(r:udm2419-udm2420) Units=km Length=0.0357237 bus1=udm2419.1.2 bus2=udm2420.1.2 switch=n enabled=y phases=2 Linecode=1P_UG_AL_1/0_Brenau_0_416_0_2_2

New Line.l(r:udm2418-udm2419) Units=km Length=0.0089235 bus1=udm2418.1.2 bus2=udm2419.1.2 switch=n enabled=y phases=2 Linecode=1P_UG_AL_1/0_Brenau_0_416_0_2_2

New Line.l(r:udm2418-udt582lv) Units=km Length=0.0178667 bus1=udt582lv.1.2 bus2=udm2418.1.2 switch=n enabled=y phases=2 Linecode=1P_UG_AL_2/0_Converse_0_416_0_2_2

New Line.l(r:p1ulv32855-udm2424) Units=km Length=0.0166111 bus1=udm2424.1.2 bus2=p1ulv32855.1.2 switch=n enabled=y phases=2 Linecode=1P_UG_AL_1/0_Brenau_0_416_0_2_2

New Line.l(r:p1ulv27840-udm2422) Units=km Length=0.0104813 bus1=udm2422.1.2 bus2=p1ulv27840.1.2 switch=n enabled=y phases=2 Linecode=1P_UG_AL_1/0_Brenau_0_416_0_2_2

New Line.l(r:p1ulv27132-udm2421) Units=km Length=0.0175313 bus1=udm2421.1.2 bus2=p1ulv27132.1.2 switch=n enabled=y phases=2 Linecode=1P_UG_AL_1/0_Brenau_0_416_0_2_2

New Line.l(r:p1ulv28945-udm2423) Units=km Length=0.0194356 bus1=udm2423.1.2 bus2=p1ulv28945.1.2 switch=n enabled=y phases=2 Linecode=1P_UG_AL_1/0_Brenau_0_416_0_2_2

New Line.l(r:udm2421-udm2423) Units=km Length=0.00792252 bus1=udm2421.1.2 bus2=udm2423.1.2 switch=n enabled=y phases=2 Linecode=1P_UG_AL_1/0_Brenau_0_416_0_2_2

New Line.l(r:udm2421-udm2422) Units=km Length=0.00792252 bus1=udm2422.1.2 bus2=udm2421.1.2 switch=n enabled=y phases=2 Linecode=1P_UG_AL_1/0_Brenau_0_416_0_2_2

New Line.l(r:udm2422-udm2424) Units=km Length=0.00791253 bus1=udm2424.1.2 bus2=udm2422.1.2 switch=n enabled=y phases=2 Linecode=1P_UG_AL_4/0_Sweetbriar_0_416_0_2_2

New Line.l(r:udm2424-udt582lv) Units=km Length=0.0089335 bus1=udt582lv.1.2 bus2=udm2424.1.2 switch=n enabled=y phases=2 Linecode=1P_UG_AL_4/0_Sweetbriar_0_416_0_2_2

New Line.l(r:p1ulv2974-udt583lv) Units=km Length=0.0189219 bus1=udt583lv.1.2 bus2=p1ulv2974.1.2 switch=n enabled=y phases=2 Linecode=1P_UG_AL_1/0_Brenau_0_416_0_2_2

New Line.l(r:p1ulv28126-udt583lv) Units=km Length=0.0156371 bus1=udt583lv.1.2 bus2=p1ulv28126.1.2 switch=n enabled=y phases=2 Linecode=1P_UG_AL_1/0_Brenau_0_416_0_2_2

New Line.l(r:p1ulv1076-udm2425) Units=km Length=0.0208496 bus1=udm2425.1.2 bus2=p1ulv1076.1.2 switch=n enabled=y phases=2 Linecode=1P_UG_AL_1/0_Brenau_0_416_0_2_2

New Line.l(r:p1ulv2989-udm2425) Units=km Length=0.0189467 bus1=udm2425.1.2 bus2=p1ulv2989.1.2 switch=n enabled=y phases=2 Linecode=1P_UG_AL_1/0_Brenau_0_416_0_2_2

New Line.l(r:udm2425-udt583lv) Units=km Length=0.019835700000000005 bus1=udt583lv.1.2 bus2=udm2425.1.2 switch=n enabled=y phases=2 Linecode=1P_UG_AL_2/0_Converse_0_416_0_2_2

New Line.l(r:p1ulv2977-udm2427) Units=km Length=0.0188983 bus1=udm2427.1.2 bus2=p1ulv2977.1.2 switch=n enabled=y phases=2 Linecode=1P_UG_AL_1/0_Brenau_0_416_0_2_2

New Line.l(r:udm2427-udt583lv) Units=km Length=0.0198453 bus1=udt583lv.1.2 bus2=udm2427.1.2 switch=n enabled=y phases=2 Linecode=1P_UG_AL_1/0_Brenau_0_416_0_2_2

New Line.l(r:p1ulv47450-udt584lv) Units=km Length=0.0157601 bus1=udt584lv.1.2 bus2=p1ulv47450.1.2 switch=n enabled=y phases=2 Linecode=1P_UG_AL_1/0_Brenau_0_416_0_2_2

New Line.l(r:p1ulv2973-udm2431) Units=km Length=0.0154917 bus1=udm2431.1.2 bus2=p1ulv2973.1.2 switch=n enabled=y phases=2 Linecode=1P_UG_AL_1/0_Brenau_0_416_0_2_2

New Line.l(r:p1ulv1077-udm2430) Units=km Length=0.0147868 bus1=udm2430.1.2 bus2=p1ulv1077.1.2 switch=n enabled=y phases=2 Linecode=1P_UG_AL_1/0_Brenau_0_416_0_2_2

New Line.l(r:p1ulv29834-udm2433) Units=km Length=0.0155851 bus1=udm2433.1.2 bus2=p1ulv29834.1.2 switch=n enabled=y phases=2 Linecode=1P_UG_AL_1/0_Brenau_0_416_0_2_2

New Line.l(r:udm2430-udm2433) Units=km Length=0.00970025 bus1=udm2430.1.2 bus2=udm2433.1.2 switch=n enabled=y phases=2 Linecode=1P_UG_AL_1/0_Brenau_0_416_0_2_2

New Line.l(r:udm2430-udm2431) Units=km Length=0.00970025 bus1=udm2431.1.2 bus2=udm2430.1.2 switch=n enabled=y phases=2 Linecode=1P_UG_AL_4/0_Sweetbriar_0_416_0_2_2

New Line.l(r:udm2431-udt584lv) Units=km Length=0.00970025 bus1=udt584lv.1.2 bus2=udm2431.1.2 switch=n enabled=y phases=2 Linecode=1P_UG_AL_4/0_Sweetbriar_0_416_0_2_2

New Line.l(r:p1ulv2984-udm2432) Units=km Length=0.013751 bus1=udm2432.1.2 bus2=p1ulv2984.1.2 switch=n enabled=y phases=2 Linecode=1P_UG_AL_1/0_Brenau_0_416_0_2_2

New Line.l(r:p1ulv30373-udm2434) Units=km Length=0.0152758 bus1=udm2434.1.2 bus2=p1ulv30373.1.2 switch=n enabled=y phases=2 Linecode=1P_UG_AL_1/0_Brenau_0_416_0_2_2

New Line.l(r:udm2432-udm2434) Units=km Length=0.00934085 bus1=udm2432.1.2 bus2=udm2434.1.2 switch=n enabled=y phases=2 Linecode=1P_UG_AL_1/0_Brenau_0_416_0_2_2

New Line.l(r:udm2432-udt584lv) Units=km Length=0.0488786 bus1=udt584lv.1.2 bus2=udm2432.1.2 switch=n enabled=y phases=2 Linecode=1P_UG_AL_1/0_Brenau_0_416_0_2_2

New Line.l(r:p1ulv1098-udt585lv) Units=km Length=0.00989995 bus1=udt585lv.1.2 bus2=p1ulv1098.1.2 switch=n enabled=y phases=2 Linecode=1P_UG_AL_1/0_Brenau_0_416_0_2_2

New Line.l(r:p1ulv1082-udm2438) Units=km Length=0.0100653 bus1=udm2438.1.2 bus2=p1ulv1082.1.2 switch=n enabled=y phases=2 Linecode=1P_UG_AL_1/0_Brenau_0_416_0_2_2

New Line.l(r:p1ulv24187-udm2438) Units=km Length=0.0155619 bus1=udm2438.1.2 bus2=p1ulv24187.1.2 switch=n enabled=y phases=2 Linecode=1P_UG_AL_1/0_Brenau_0_416_0_2_2

New Line.l(r:p1ulv24189-udm2441) Units=km Length=0.0124737 bus1=udm2441.1.2 bus2=p1ulv24189.1.2 switch=n enabled=y phases=2 Linecode=1P_UG_AL_1/0_Brenau_0_416_0_2_2

New Line.l(r:udm2438-udm2441) Units=km Length=0.044777 bus1=udm2438.1.2 bus2=udm2441.1.2 switch=n enabled=y phases=2 Linecode=1P_UG_AL_1/0_Brenau_0_416_0_2_2

New Line.l(r:udm2438-udt585lv) Units=km Length=0.00920005 bus1=udt585lv.1.2 bus2=udm2438.1.2 switch=n enabled=y phases=2 Linecode=1P_UG_AL_2/0_Converse_0_416_0_2_2

New Line.l(r:p1ulv47311-udm2442) Units=km Length=0.00987148 bus1=udm2442.1.2 bus2=p1ulv47311.1.2 switch=n enabled=y phases=2 Linecode=1P_UG_AL_1/0_Brenau_0_416_0_2_2

New Line.l(r:p1ulv1080-udm2437) Units=km Length=0.0101724 bus1=udm2437.1.2 bus2=p1ulv1080.1.2 switch=n enabled=y phases=2 Linecode=1P_UG_AL_1/0_Brenau_0_416_0_2_2

New Line.l(r:p1ulv1078-udm2436) Units=km Length=0.00949318 bus1=udm2436.1.2 bus2=p1ulv1078.1.2 switch=n enabled=y phases=2 Linecode=1P_UG_AL_1/0_Brenau_0_416_0_2_2

New Line.l(r:udm2436-udm2437) Units=km Length=0.0091896 bus1=udm2437.1.2 bus2=udm2436.1.2 switch=n enabled=y phases=2 Linecode=1P_UG_AL_1/0_Brenau_0_416_0_2_2

New Line.l(r:udm2437-udm2442) Units=km Length=0.0184001 bus1=udm2442.1.2 bus2=udm2437.1.2 switch=n enabled=y phases=2 Linecode=1P_UG_AL_1/0_Brenau_0_416_0_2_2

New Line.l(r:udm2442-udt585lv) Units=km Length=0.00919959 bus1=udt585lv.1.2 bus2=udm2442.1.2 switch=n enabled=y phases=2 Linecode=1P_UG_AL_2/0_Converse_0_416_0_2_2

New Line.l(r:p1ulv35499-udt587lv) Units=km Length=0.00837342 bus1=udt587lv.1.2 bus2=p1ulv35499.1.2 switch=n enabled=y phases=2 Linecode=1P_UG_AL_1/0_Brenau_0_416_0_2_2

New Line.l(r:p1ulv1081-udm2445) Units=km Length=0.00753042 bus1=udm2445.1.2 bus2=p1ulv1081.1.2 switch=n enabled=y phases=2 Linecode=1P_UG_AL_1/0_Brenau_0_416_0_2_2

New Line.l(r:p1ulv1107-udm2446) Units=km Length=0.018117500000000005 bus1=udm2446.1.2 bus2=p1ulv1107.1.2 switch=n enabled=y phases=2 Linecode=1P_UG_AL_1/0_Brenau_0_416_0_2_2

New Line.l(r:p1ulv29706-udm2447) Units=km Length=0.0116346 bus1=udm2447.1.2 bus2=p1ulv29706.1.2 switch=n enabled=y phases=2 Linecode=1P_UG_AL_1/0_Brenau_0_416_0_2_2

New Line.l(r:udm2446-udm2447) Units=km Length=0.0176391 bus1=udm2446.1.2 bus2=udm2447.1.2 switch=n enabled=y phases=2 Linecode=1P_UG_AL_1/0_Brenau_0_416_0_2_2

New Line.l(r:udm2445-udm2446) Units=km Length=0.0189105 bus1=udm2445.1.2 bus2=udm2446.1.2 switch=n enabled=y phases=2 Linecode=1P_UG_AL_1/0_Brenau_0_416_0_2_2

New Line.l(r:udm2445-udt587lv) Units=km Length=0.009460240000000002 bus1=udt587lv.1.2 bus2=udm2445.1.2 switch=n enabled=y phases=2 Linecode=1P_UG_AL_4/0_Sweetbriar_0_416_0_2_2

New Line.l(r:p1ulv37770-udm2451) Units=km Length=0.017839000000000004 bus1=udm2451.1.2 bus2=p1ulv37770.1.2 switch=n enabled=y phases=2 Linecode=1P_UG_AL_1/0_Brenau_0_416_0_2_2

New Line.l(r:p1ulv32281-udm2448) Units=km Length=0.00789848 bus1=udm2448.1.2 bus2=p1ulv32281.1.2 switch=n enabled=y phases=2 Linecode=1P_UG_AL_1/0_Brenau_0_416_0_2_2

New Line.l(r:p1ulv34769-udm2449) Units=km Length=0.0175232 bus1=udm2449.1.2 bus2=p1ulv34769.1.2 switch=n enabled=y phases=2 Linecode=1P_UG_AL_1/0_Brenau_0_416_0_2_2

New Line.l(r:udm2448-udm2449) Units=km Length=0.009460240000000002 bus1=udm2448.1.2 bus2=udm2449.1.2 switch=n enabled=y phases=2 Linecode=1P_UG_AL_1/0_Brenau_0_416_0_2_2

New Line.l(r:udm2448-udm2451) Units=km Length=0.0189105 bus1=udm2451.1.2 bus2=udm2448.1.2 switch=n enabled=y phases=2 Linecode=1P_UG_AL_4/0_Sweetbriar_0_416_0_2_2

New Line.l(r:udm2451-udt587lv) Units=km Length=0.00945025 bus1=udt587lv.1.2 bus2=udm2451.1.2 switch=n enabled=y phases=2 Linecode=1P_UG_AL_4/0_Sweetbriar_0_416_0_2_2

New Line.l(r:p1ulv1087-udm2458) Units=km Length=0.0099962 bus1=udm2458.1.2 bus2=p1ulv1087.1.2 switch=n enabled=y phases=2 Linecode=1P_UG_AL_1/0_Brenau_0_416_0_2_2

New Line.l(r:p1ulv39230-udm2462) Units=km Length=0.0105303 bus1=udm2462.1.2 bus2=p1ulv39230.1.2 switch=n enabled=y phases=2 Linecode=1P_UG_AL_1/0_Brenau_0_416_0_2_2

New Line.l(r:p1ulv1104-udm2460) Units=km Length=0.00928612 bus1=udm2460.1.2 bus2=p1ulv1104.1.2 switch=n enabled=y phases=2 Linecode=1P_OH_AL_2/0_Rucina_0_416_0_2_2

New Line.l(r:udm2460-udm2462) Units=km Length=0.0173651 bus1=udm2462.1.2 bus2=udm2460.1.2 switch=n enabled=y phases=2 Linecode=1P_OH_AL_2/0_Rucina_0_416_0_2_2

New Line.l(r:udm2458-udm2462) Units=km Length=0.0182376 bus1=udm2458.1.2 bus2=udm2462.1.2 switch=n enabled=y phases=2 Linecode=1P_UG_AL_1/0_Brenau_0_416_0_2_2

New Line.l(r:udm2458-udt589lv) Units=km Length=0.00912921 bus1=udt589lv.1.2 bus2=udm2458.1.2 switch=n enabled=y phases=2 Linecode=1P_UG_AL_2/0_Converse_0_416_0_2_2

New Line.l(r:p1ulv30289-udm2461) Units=km Length=0.00971982 bus1=udm2461.1.2 bus2=p1ulv30289.1.2 switch=n enabled=y phases=2 Linecode=1P_UG_AL_1/0_Brenau_0_416_0_2_2

New Line.l(r:p1ulv1084-udm2457) Units=km Length=0.010530200000000002 bus1=udm2457.1.2 bus2=p1ulv1084.1.2 switch=n enabled=y phases=2 Linecode=1P_UG_AL_1/0_Brenau_0_416_0_2_2

New Line.l(r:p1ulv1090-udm2459) Units=km Length=0.011561 bus1=udm2459.1.2 bus2=p1ulv1090.1.2 switch=n enabled=y phases=2 Linecode=1P_UG_AL_1/0_Brenau_0_416_0_2_2

New Line.l(r:udm2457-udm2459) Units=km Length=0.00548368 bus1=udm2457.1.2 bus2=udm2459.1.2 switch=n enabled=y phases=2 Linecode=1P_UG_AL_1/0_Brenau_0_416_0_2_2

New Line.l(r:udm2457-udm2461) Units=km Length=0.00665144 bus1=udm2461.1.2 bus2=udm2457.1.2 switch=n enabled=y phases=2 Linecode=1P_UG_AL_1/0_Brenau_0_416_0_2_2

New Line.l(r:udm2461-udt589lv) Units=km Length=0.00911878 bus1=udt589lv.1.2 bus2=udm2461.1.2 switch=n enabled=y phases=2 Linecode=1P_UG_AL_2/0_Converse_0_416_0_2_2

New Line.l(r:p1ulv30443-udt591lv) Units=km Length=0.011477 bus1=udt591lv.1.2 bus2=p1ulv30443.1.2 switch=n enabled=y phases=2 Linecode=1P_UG_AL_1/0_Brenau_0_416_0_2_2

New Line.l(r:p1ulv1088-udm2474) Units=km Length=0.0117359 bus1=udm2474.1.2 bus2=p1ulv1088.1.2 switch=n enabled=y phases=2 Linecode=1P_UG_AL_1/0_Brenau_0_416_0_2_2

New Line.l(r:p1ulv38591-udm2474) Units=km Length=0.0150413 bus1=udm2474.1.2 bus2=p1ulv38591.1.2 switch=n enabled=y phases=2 Linecode=1P_UG_AL_1/0_Brenau_0_416_0_2_2

New Line.l(r:udm2474-udt591lv) Units=km Length=0.00921745 bus1=udt591lv.1.2 bus2=udm2474.1.2 switch=n enabled=y phases=2 Linecode=1P_UG_AL_4/0_Sweetbriar_0_416_0_2_2

New Line.l(r:p1ulv42242-udm2477) Units=km Length=0.0114501 bus1=udm2477.1.2 bus2=p1ulv42242.1.2 switch=n enabled=y phases=2 Linecode=1P_UG_AL_1/0_Brenau_0_416_0_2_2

New Line.l(r:p1ulv50846-udm2477) Units=km Length=0.0143953 bus1=udm2477.1.2 bus2=p1ulv50846.1.2 switch=n enabled=y phases=2 Linecode=1P_UG_AL_1/0_Brenau_0_416_0_2_2

New Line.l(r:udm2477-udt591lv) Units=km Length=0.00921745 bus1=udt591lv.1.2 bus2=udm2477.1.2 switch=n enabled=y phases=2 Linecode=1P_UG_AL_1/0_Brenau_0_416_0_2_2

New Line.l(r:p1ulv1089-udm2479) Units=km Length=0.012022500000000002 bus1=udm2479.1.2 bus2=p1ulv1089.1.2 switch=n enabled=y phases=2 Linecode=1P_OH_AL_2/0_Rucina_0_416_0_2_2

New Line.l(r:udm2479-udt592lv) Units=km Length=0.0167587 bus1=udt592lv.1.2 bus2=udm2479.1.2 switch=n enabled=y phases=2 Linecode=1P_OH_AL_2/0_Rucina_0_416_0_2_2

New Line.l(r:p1ulv1103-udm2480) Units=km Length=0.00873577 bus1=udm2480.1.2 bus2=p1ulv1103.1.2 switch=n enabled=y phases=2 Linecode=1P_OH_AL_2/0_Rucina_0_416_0_2_2

New Line.l(r:udm2480-udt592lv) Units=km Length=0.0167587 bus1=udt592lv.1.2 bus2=udm2480.1.2 switch=n enabled=y phases=2 Linecode=1P_OH_AL_2/0_Rucina_0_416_0_2_2

New Line.l(r:p1ulv1096-udm2488) Units=km Length=0.00747493 bus1=udm2488.1.2 bus2=p1ulv1096.1.2 switch=n enabled=y phases=2 Linecode=1P_UG_AL_1/0_Brenau_0_416_0_2_2

New Line.l(r:udm2488-udt596lv) Units=km Length=0.008185900000000001 bus1=udt596lv.1.2 bus2=udm2488.1.2 switch=n enabled=y phases=2 Linecode=1P_UG_AL_1/0_Brenau_0_416_0_2_2

New Line.l(r:p1ulv42442-udm2490) Units=km Length=0.00982599 bus1=udm2490.1.2 bus2=p1ulv42442.1.2 switch=n enabled=y phases=2 Linecode=1P_UG_AL_1/0_Brenau_0_416_0_2_2

New Line.l(r:p1ulv39390-udm2489) Units=km Length=0.01157 bus1=udm2489.1.2 bus2=p1ulv39390.1.2 switch=n enabled=y phases=2 Linecode=1P_UG_AL_4/0_Sweetbriar_0_416_0_2_2

New Line.l(r:udm2489-udm2490) Units=km Length=0.0272065 bus1=udm2490.1.2 bus2=udm2489.1.2 switch=n enabled=y phases=2 Linecode=1P_UG_AL_4/0_Sweetbriar_0_416_0_2_2

New Line.l(r:udm2490-udt596lv) Units=km Length=0.00818529 bus1=udt596lv.1.2 bus2=udm2490.1.2 switch=n enabled=y phases=2 Linecode=1P_UG_AL_4/0_Sweetbriar_0_416_0_2_2

New Line.l(r:p1ulv1102-udt600lv) Units=km Length=0.00788229 bus1=udt600lv.1.2 bus2=p1ulv1102.1.2 switch=n enabled=y phases=2 Linecode=1P_UG_AL_4/0_Sweetbriar_0_416_0_2_2

New Line.l(r:p1ulv24197-udt601lv) Units=km Length=0.0111603 bus1=udt601lv.1.2 bus2=p1ulv24197.1.2 switch=n enabled=y phases=2 Linecode=1P_UG_AL_1/0_Brenau_0_416_0_2_2

New Line.l(r:p1ulv1105-udm2495) Units=km Length=0.018595800000000003 bus1=udm2495.1.2 bus2=p1ulv1105.1.2 switch=n enabled=y phases=2 Linecode=1P_UG_AL_4/0_Sweetbriar_0_416_0_2_2

New Line.l(r:udm2495-udt601lv) Units=km Length=0.00948905 bus1=udt601lv.1.2 bus2=udm2495.1.2 switch=n enabled=y phases=2 Linecode=1P_UG_AL_4/0_Sweetbriar_0_416_0_2_2

New Line.l(r:p1ulv24196-udm2496) Units=km Length=0.0097737 bus1=udm2496.1.2 bus2=p1ulv24196.1.2 switch=n enabled=y phases=2 Linecode=1P_UG_AL_1/0_Brenau_0_416_0_2_2

New Line.l(r:udm2496-udt601lv) Units=km Length=0.0312932 bus1=udt601lv.1.2 bus2=udm2496.1.2 switch=n enabled=y phases=2 Linecode=1P_UG_AL_1/0_Brenau_0_416_0_2_2

New Line.l(r:p1ulv24171-udt603lv) Units=km Length=0.0122661 bus1=udt603lv.1.2 bus2=p1ulv24171.1.2 switch=n enabled=y phases=2 Linecode=1P_UG_AL_1/0_Brenau_0_416_0_2_2

New Line.l(r:p1ulv24170-udm2500) Units=km Length=0.0122517 bus1=udm2500.1.2 bus2=p1ulv24170.1.2 switch=n enabled=y phases=2 Linecode=1P_UG_AL_1/0_Brenau_0_416_0_2_2

New Line.l(r:p1ulv1108-udm2499) Units=km Length=0.016692900000000004 bus1=udm2499.1.2 bus2=p1ulv1108.1.2 switch=n enabled=y phases=2 Linecode=1P_UG_AL_1/0_Brenau_0_416_0_2_2

New Line.l(r:udm2499-udm2500) Units=km Length=0.0343886 bus1=udm2500.1.2 bus2=udm2499.1.2 switch=n enabled=y phases=2 Linecode=1P_UG_AL_1/0_Brenau_0_416_0_2_2

New Line.l(r:udm2500-udt603lv) Units=km Length=0.00862209 bus1=udt603lv.1.2 bus2=udm2500.1.2 switch=n enabled=y phases=2 Linecode=1P_UG_AL_2/0_Converse_0_416_0_2_2

New Line.l(r:p1ulv24172-udm2502) Units=km Length=0.0124665 bus1=udm2502.1.2 bus2=p1ulv24172.1.2 switch=n enabled=y phases=2 Linecode=1P_UG_AL_1/0_Brenau_0_416_0_2_2

New Line.l(r:p1ulv24173-udm2503) Units=km Length=0.0125946 bus1=udm2503.1.2 bus2=p1ulv24173.1.2 switch=n enabled=y phases=2 Linecode=1P_UG_AL_1/0_Brenau_0_416_0_2_2

New Line.l(r:p1ulv24174-udm2504) Units=km Length=0.01245 bus1=udm2504.1.2 bus2=p1ulv24174.1.2 switch=n enabled=y phases=2 Linecode=1P_UG_AL_1/0_Brenau_0_416_0_2_2

New Line.l(r:udm2503-udm2504) Units=km Length=0.0092024 bus1=udm2503.1.2 bus2=udm2504.1.2 switch=n enabled=y phases=2 Linecode=1P_UG_AL_1/0_Brenau_0_416_0_2_2

New Line.l(r:udm2502-udm2503) Units=km Length=0.00919218 bus1=udm2502.1.2 bus2=udm2503.1.2 switch=n enabled=y phases=2 Linecode=1P_UG_AL_1/0_Brenau_0_416_0_2_2

New Line.l(r:udm2502-udt603lv) Units=km Length=0.0092024 bus1=udt603lv.1.2 bus2=udm2502.1.2 switch=n enabled=y phases=2 Linecode=1P_UG_AL_1/0_Brenau_0_416_0_2_2

New Line.l(r:p1ulv42754-udt1320lv) Units=km Length=0.014834 bus1=udt1320lv.1.2 bus2=p1ulv42754.1.2 switch=n enabled=y phases=2 Linecode=1P_UG_AL_1/0_Brenau_0_416_0_2_2

New Line.l(r:p1ulv2827-udm5392) Units=km Length=0.0183565 bus1=udm5392.1.2 bus2=p1ulv2827.1.2 switch=n enabled=y phases=2 Linecode=1P_UG_AL_1/0_Brenau_0_416_0_2_2

New Line.l(r:p1ulv35193-udm5394) Units=km Length=0.0135098 bus1=udm5394.1.2 bus2=p1ulv35193.1.2 switch=n enabled=y phases=2 Linecode=1P_UG_AL_1/0_Brenau_0_416_0_2_2

New Line.l(r:p1ulv36956-udm5395) Units=km Length=0.0166279 bus1=udm5395.1.2 bus2=p1ulv36956.1.2 switch=n enabled=y phases=2 Linecode=1P_UG_AL_1/0_Brenau_0_416_0_2_2

New Line.l(r:udm5394-udm5395) Units=km Length=0.0189398 bus1=udm5394.1.2 bus2=udm5395.1.2 switch=n enabled=y phases=2 Linecode=1P_UG_AL_1/0_Brenau_0_416_0_2_2

New Line.l(r:udm5392-udm5394) Units=km Length=0.00947507 bus1=udm5392.1.2 bus2=udm5394.1.2 switch=n enabled=y phases=2 Linecode=1P_UG_AL_1/0_Brenau_0_416_0_2_2

New Line.l(r:udm5392-udt1320lv) Units=km Length=0.00947507 bus1=udt1320lv.1.2 bus2=udm5392.1.2 switch=n enabled=y phases=2 Linecode=1P_UG_AL_1/0_Brenau_0_416_0_2_2

New Line.l(r:p1ulv44173-udm5397) Units=km Length=0.0144392 bus1=udm5397.1.2 bus2=p1ulv44173.1.2 switch=n enabled=y phases=2 Linecode=1P_UG_AL_1/0_Brenau_0_416_0_2_2

New Line.l(r:p1ulv44544-udm5397) Units=km Length=0.0164414 bus1=udm5397.1.2 bus2=p1ulv44544.1.2 switch=n enabled=y phases=2 Linecode=1P_UG_AL_1/0_Brenau_0_416_0_2_2

New Line.l(r:p1ulv47385-udm5399) Units=km Length=0.0181935 bus1=udm5399.1.2 bus2=p1ulv47385.1.2 switch=n enabled=y phases=2 Linecode=1P_UG_AL_1/0_Brenau_0_416_0_2_2

New Line.l(r:p1ulv9359-udm5393) Units=km Length=0.0179342 bus1=udm5393.1.2 bus2=p1ulv9359.1.2 switch=n enabled=y phases=2 Linecode=1P_UG_AL_1/0_Brenau_0_416_0_2_2

New Line.l(r:udm5393-udm5399) Units=km Length=0.00947507 bus1=udm5399.1.2 bus2=udm5393.1.2 switch=n enabled=y phases=2 Linecode=1P_UG_AL_1/0_Brenau_0_416_0_2_2

New Line.l(r:udm5397-udm5399) Units=km Length=0.0189498 bus1=udm5397.1.2 bus2=udm5399.1.2 switch=n enabled=y phases=2 Linecode=1P_UG_AL_1/0_Brenau_0_416_0_2_2

New Line.l(r:udm5397-udt1320lv) Units=km Length=0.00947507 bus1=udt1320lv.1.2 bus2=udm5397.1.2 switch=n enabled=y phases=2 Linecode=1P_UG_AL_4/0_Sweetbriar_0_416_0_2_2

New Line.l(r:p1ulv2842-udt1322lv) Units=km Length=0.0161872 bus1=udt1322lv.1.2 bus2=p1ulv2842.1.2 switch=n enabled=y phases=2 Linecode=1P_OH_AL_2/0_Rucina_0_416_0_2_2

New Line.l(r:p1ulv2829-udm5401) Units=km Length=0.014382000000000002 bus1=udm5401.1.2 bus2=p1ulv2829.1.2 switch=n enabled=y phases=2 Linecode=1P_OH_AL_2/0_Rucina_0_416_0_2_2

New Line.l(r:udm5401-udt1322lv) Units=km Length=0.0192118 bus1=udt1322lv.1.2 bus2=udm5401.1.2 switch=n enabled=y phases=2 Linecode=1P_OH_AL_2/0_Rucina_0_416_0_2_2

New Line.l(r:p1ulv29936-udm5403) Units=km Length=0.013383200000000001 bus1=udm5403.1.2 bus2=p1ulv29936.1.2 switch=n enabled=y phases=2 Linecode=1P_OH_AL_2/0_Rucina_0_416_0_2_2

New Line.l(r:udm5403-udt1322lv) Units=km Length=0.019221900000000004 bus1=udt1322lv.1.2 bus2=udm5403.1.2 switch=n enabled=y phases=2 Linecode=1P_OH_AL_2/0_Rucina_0_416_0_2_2

New Line.l(r:p1ulv50838-udt1323lv) Units=km Length=0.0135103 bus1=udt1323lv.1.2 bus2=p1ulv50838.1.2 switch=n enabled=y phases=2 Linecode=1P_UG_AL_1/0_Brenau_0_416_0_2_2

New Line.l(r:p1ulv40527-udm5407) Units=km Length=0.00994765 bus1=udm5407.1.2 bus2=p1ulv40527.1.2 switch=n enabled=y phases=2 Linecode=1P_UG_AL_1/0_Brenau_0_416_0_2_2

New Line.l(r:p1ulv50445-udm5407) Units=km Length=0.0135574 bus1=udm5407.1.2 bus2=p1ulv50445.1.2 switch=n enabled=y phases=2 Linecode=1P_UG_AL_1/0_Brenau_0_416_0_2_2

New Line.l(r:p1ulv27312-udm5406) Units=km Length=0.0126788 bus1=udm5406.1.2 bus2=p1ulv27312.1.2 switch=n enabled=y phases=2 Linecode=1P_UG_AL_1/0_Brenau_0_416_0_2_2

New Line.l(r:udm5406-udm5407) Units=km Length=0.00987456 bus1=udm5407.1.2 bus2=udm5406.1.2 switch=n enabled=y phases=2 Linecode=1P_UG_AL_1/0_Brenau_0_416_0_2_2

New Line.l(r:udm5407-udt1323lv) Units=km Length=0.00986426 bus1=udt1323lv.1.2 bus2=udm5407.1.2 switch=n enabled=y phases=2 Linecode=1P_UG_AL_2/0_Converse_0_416_0_2_2

New Line.l(r:p1ulv47794-udm5408) Units=km Length=0.0138046 bus1=udm5408.1.2 bus2=p1ulv47794.1.2 switch=n enabled=y phases=2 Linecode=1P_UG_AL_1/0_Brenau_0_416_0_2_2

New Line.l(r:p1ulv2843-udm5405) Units=km Length=0.0122653 bus1=udm5405.1.2 bus2=p1ulv2843.1.2 switch=n enabled=y phases=2 Linecode=1P_UG_AL_1/0_Brenau_0_416_0_2_2

New Line.l(r:p1ulv2830-udm5404) Units=km Length=0.0163603 bus1=udm5404.1.2 bus2=p1ulv2830.1.2 switch=n enabled=y phases=2 Linecode=1P_UG_AL_1/0_Brenau_0_416_0_2_2

New Line.l(r:udm5404-udm5405) Units=km Length=0.00987456 bus1=udm5405.1.2 bus2=udm5404.1.2 switch=n enabled=y phases=2 Linecode=1P_UG_AL_1/0_Brenau_0_416_0_2_2

New Line.l(r:udm5405-udm5408) Units=km Length=0.00986426 bus1=udm5408.1.2 bus2=udm5405.1.2 switch=n enabled=y phases=2 Linecode=1P_UG_AL_1/0_Brenau_0_416_0_2_2

New Line.l(r:udm5408-udt1323lv) Units=km Length=0.00986456 bus1=udt1323lv.1.2 bus2=udm5408.1.2 switch=n enabled=y phases=2 Linecode=1P_UG_AL_2/0_Converse_0_416_0_2_2

New Line.l(r:p1ulv47377-udt1324lv) Units=km Length=0.0072667 bus1=udt1324lv.1.2 bus2=p1ulv47377.1.2 switch=n enabled=y phases=2 Linecode=1P_UG_AL_1/0_Brenau_0_416_0_2_2

New Line.l(r:p1ulv2831-udm5411) Units=km Length=0.0135961 bus1=udm5411.1.2 bus2=p1ulv2831.1.2 switch=n enabled=y phases=2 Linecode=1P_UG_AL_1/0_Brenau_0_416_0_2_2

New Line.l(r:udm5411-udt1324lv) Units=km Length=0.0099936 bus1=udt1324lv.1.2 bus2=udm5411.1.2 switch=n enabled=y phases=2 Linecode=1P_UG_AL_1/0_Brenau_0_416_0_2_2

New Line.l(r:p1ulv44536-udm5412) Units=km Length=0.0173349 bus1=udm5412.1.2 bus2=p1ulv44536.1.2 switch=n enabled=y phases=2 Linecode=1P_OH_AL_2/0_Rucina_0_416_0_2_2

New Line.l(r:udm5412-udt1324lv) Units=km Length=0.0285805 bus1=udt1324lv.1.2 bus2=udm5412.1.2 switch=n enabled=y phases=2 Linecode=1P_OH_AL_4/0_Zuzara_0_416_0_2_2

New Line.l(r:p1ulv2840-udm5416) Units=km Length=0.0143987 bus1=udm5416.1.2 bus2=p1ulv2840.1.2 switch=n enabled=y phases=2 Linecode=1P_UG_AL_1/0_Brenau_0_416_0_2_2

New Line.l(r:p1ulv2833-udm5415) Units=km Length=0.01575 bus1=udm5415.1.2 bus2=p1ulv2833.1.2 switch=n enabled=y phases=2 Linecode=1P_UG_AL_1/0_Brenau_0_416_0_2_2

New Line.l(r:udm5415-udm5416) Units=km Length=0.0189372 bus1=udm5416.1.2 bus2=udm5415.1.2 switch=n enabled=y phases=2 Linecode=1P_UG_AL_1/0_Brenau_0_416_0_2_2

New Line.l(r:p1ulv30545-udm5418) Units=km Length=0.00949577 bus1=udm5418.1.2 bus2=p1ulv30545.1.2 switch=n enabled=y phases=2 Linecode=1P_UG_AL_1/0_Brenau_0_416_0_2_2

New Line.l(r:udm5416-udm5418) Units=km Length=0.0185143 bus1=udm5416.1.2 bus2=udm5418.1.2 switch=n enabled=y phases=2 Linecode=1P_UG_AL_1/0_Brenau_0_416_0_2_2

New Line.l(r:udm5416-udt1325lv) Units=km Length=0.00907292 bus1=udt1325lv.1.2 bus2=udm5416.1.2 switch=n enabled=y phases=2 Linecode=1P_UG_AL_2/0_Converse_0_416_0_2_2

New Line.l(r:p1ulv50826-udm5419) Units=km Length=0.0137349 bus1=udm5419.1.2 bus2=p1ulv50826.1.2 switch=n enabled=y phases=2 Linecode=1P_UG_AL_1/0_Brenau_0_416_0_2_2

New Line.l(r:p1ulv2832-udm5414) Units=km Length=0.0102447 bus1=udm5414.1.2 bus2=p1ulv2832.1.2 switch=n enabled=y phases=2 Linecode=1P_UG_AL_1/0_Brenau_0_416_0_2_2

New Line.l(r:p1ulv26318-udm5417) Units=km Length=0.00831429 bus1=udm5417.1.2 bus2=p1ulv26318.1.2 switch=n enabled=y phases=2 Linecode=1P_UG_AL_1/0_Brenau_0_416_0_2_2

New Line.l(r:udm5414-udm5417) Units=km Length=0.0181458 bus1=udm5414.1.2 bus2=udm5417.1.2 switch=n enabled=y phases=2 Linecode=1P_UG_AL_1/0_Brenau_0_416_0_2_2

New Line.l(r:udm5414-udm5419) Units=km Length=0.00907292 bus1=udm5419.1.2 bus2=udm5414.1.2 switch=n enabled=y phases=2 Linecode=1P_UG_AL_4/0_Sweetbriar_0_416_0_2_2

New Line.l(r:udm5419-udt1325lv) Units=km Length=0.00907292 bus1=udt1325lv.1.2 bus2=udm5419.1.2 switch=n enabled=y phases=2 Linecode=1P_UG_AL_4/0_Sweetbriar_0_416_0_2_2

New Line.l(r:p1ulv38568-udm5421) Units=km Length=0.016407800000000004 bus1=udm5421.1.2 bus2=p1ulv38568.1.2 switch=n enabled=y phases=2 Linecode=1P_UG_AL_1/0_Brenau_0_416_0_2_2

New Line.l(r:p1ulv2834-udm5420) Units=km Length=0.0127785 bus1=udm5420.1.2 bus2=p1ulv2834.1.2 switch=n enabled=y phases=2 Linecode=1P_UG_AL_1/0_Brenau_0_416_0_2_2

New Line.l(r:udm5420-udm5421) Units=km Length=0.00945119 bus1=udm5421.1.2 bus2=udm5420.1.2 switch=n enabled=y phases=2 Linecode=1P_UG_AL_1/0_Brenau_0_416_0_2_2

New Line.l(r:udm5421-udt1326lv) Units=km Length=0.00944119 bus1=udt1326lv.1.2 bus2=udm5421.1.2 switch=n enabled=y phases=2 Linecode=1P_UG_AL_1/0_Brenau_0_416_0_2_2

New Line.l(r:p1ulv39084-udm5422) Units=km Length=0.00885937 bus1=udm5422.1.2 bus2=p1ulv39084.1.2 switch=n enabled=y phases=2 Linecode=1P_UG_AL_1/0_Brenau_0_416_0_2_2

New Line.l(r:udm5422-udt1326lv) Units=km Length=0.0667969 bus1=udt1326lv.1.2 bus2=udm5422.1.2 switch=n enabled=y phases=2 Linecode=1P_UG_AL_1/0_Brenau_0_416_0_2_2

New Line.l(r:p1ulv2835-udm5423) Units=km Length=0.0160918 bus1=udm5423.1.2 bus2=p1ulv2835.1.2 switch=n enabled=y phases=2 Linecode=1P_UG_AL_1/0_Brenau_0_416_0_2_2

New Line.l(r:udm5423-udt1327lv) Units=km Length=0.016988400000000004 bus1=udt1327lv.1.2 bus2=udm5423.1.2 switch=n enabled=y phases=2 Linecode=1P_UG_AL_1/0_Brenau_0_416_0_2_2

New Line.l(r:p1ulv2838-udm5424) Units=km Length=0.014417500000000001 bus1=udm5424.1.2 bus2=p1ulv2838.1.2 switch=n enabled=y phases=2 Linecode=1P_UG_AL_1/0_Brenau_0_416_0_2_2

New Line.l(r:udm5424-udt1327lv) Units=km Length=0.016988400000000004 bus1=udt1327lv.1.2 bus2=udm5424.1.2 switch=n enabled=y phases=2 Linecode=1P_UG_AL_1/0_Brenau_0_416_0_2_2

New Line.l(r:p1ulv49232-udt1331lv) Units=km Length=0.015905 bus1=udt1331lv.1.2 bus2=p1ulv49232.1.2 switch=n enabled=y phases=2 Linecode=1P_UG_AL_1/0_Brenau_0_416_0_2_2

New Line.l(r:p1ulv2841-udm5428) Units=km Length=0.0142681 bus1=udm5428.1.2 bus2=p1ulv2841.1.2 switch=n enabled=y phases=2 Linecode=1P_UG_AL_4/0_Sweetbriar_0_416_0_2_2

New Line.l(r:udm5428-udt1331lv) Units=km Length=0.0473206 bus1=udt1331lv.1.2 bus2=udm5428.1.2 switch=n enabled=y phases=2 Linecode=1P_UG_AL_4/0_Sweetbriar_0_416_0_2_2

New Line.l(r:p1ulv45595-udm5430) Units=km Length=0.018657 bus1=udm5430.1.2 bus2=p1ulv45595.1.2 switch=n enabled=y phases=2 Linecode=1P_UG_AL_1/0_Brenau_0_416_0_2_2

New Line.l(r:p1ulv38579-udm5429) Units=km Length=0.01607 bus1=udm5429.1.2 bus2=p1ulv38579.1.2 switch=n enabled=y phases=2 Linecode=1P_UG_AL_1/0_Brenau_0_416_0_2_2
