New Load.load_p1ulv1073 conn=wye bus1=p1ulv1073.1.2 kV=0.2080002494301389 Vminpu=0.8 Vmaxpu=1.2 model=1 kW=3.31003 kvar=0.6703963496338274 Phases=2

New Load.load_p1ulv1074 conn=wye bus1=p1ulv1074.1.2 kV=0.2080002494301389 Vminpu=0.8 Vmaxpu=1.2 model=1 kW=1.56002 kvar=0.32002595041741205 Phases=2

New Load.load_p1ulv1075 conn=wye bus1=p1ulv1075.1.2 kV=0.2080002494301389 Vminpu=0.8 Vmaxpu=1.2 model=1 kW=10.71 kvar=0.6501428670480555 Phases=2

New Load.load_p1ulv1076 conn=wye bus1=p1ulv1076.1.2 kV=0.2080002494301389 Vminpu=0.8 Vmaxpu=1.2 model=1 kW=18.58 kvar=0.7306960987749602 Phases=2

New Load.load_p1ulv1077 conn=wye bus1=p1ulv1077.1.2 kV=0.2080002494301389 Vminpu=0.8 Vmaxpu=1.2 model=1 kW=18.01 kvar=0.6096359018765115 Phases=2

New Load.load_p1ulv1078 conn=wye bus1=p1ulv1078.1.2 kV=0.2080002494301389 Vminpu=0.8 Vmaxpu=1.2 model=1 kW=3.57004 kvar=0.7305125553603958 Phases=2

New Load.load_p1ulv1080 conn=wye bus1=p1ulv1080.1.2 kV=0.2080002494301389 Vminpu=0.8 Vmaxpu=1.2 model=1 kW=10.95 kvar=0.7005584709471337 Phases=2

New Load.load_p1ulv1081 conn=wye bus1=p1ulv1081.1.2 kV=0.2080002494301389 Vminpu=0.8 Vmaxpu=1.2 model=1 kW=18.15 kvar=0.6396408727569326 Phases=2

New Load.load_p1ulv1082 conn=wye bus1=p1ulv1082.1.2 kV=0.2080002494301389 Vminpu=0.8 Vmaxpu=1.2 model=1 kW=11.25 kvar=0.7595136983594827 Phases=2

New Load.load_p1ulv1084 conn=wye bus1=p1ulv1084.1.2 kV=0.2080002494301389 Vminpu=0.8 Vmaxpu=1.2 model=1 kW=10.58 kvar=0.6205753927367721 Phases=2

New Load.load_p1ulv1087 conn=wye bus1=p1ulv1087.1.2 kV=0.2080002494301389 Vminpu=0.8 Vmaxpu=1.2 model=1 kW=3.06003 kvar=0.6197626431693976 Phases=2

New Load.load_p1ulv1088 conn=wye bus1=p1ulv1088.1.2 kV=0.2080002494301389 Vminpu=0.8 Vmaxpu=1.2 model=1 kW=3.74004 kvar=0.7594475131176014 Phases=2

New Load.load_p1ulv1089 conn=wye bus1=p1ulv1089.1.2 kV=0.2080002494301389 Vminpu=0.8 Vmaxpu=1.2 model=1 kW=24.2001 kvar=1.8681579531122967 Phases=2

New Load.load_p1ulv1090 conn=wye bus1=p1ulv1090.1.2 kV=0.2080002494301389 Vminpu=0.8 Vmaxpu=1.2 model=1 kW=11.18 kvar=0.7491873541136322 Phases=2

New Load.load_p1ulv1096 conn=wye bus1=p1ulv1096.1.2 kV=0.2080002494301389 Vminpu=0.8 Vmaxpu=1.2 model=1 kW=3.09003 kvar=0.6306836979747686 Phases=2

New Load.load_p1ulv1097 conn=wye bus1=p1ulv1097.1.2.3 kV=0.48 Vminpu=0.8 Vmaxpu=1.2 model=1 kW=22.2702 kvar=4.522156984051402 Phases=3

New Load.load_p1ulv1098 conn=wye bus1=p1ulv1098.1.2 kV=0.2080002494301389 Vminpu=0.8 Vmaxpu=1.2 model=1 kW=11.73 kvar=0.8589462568282636 Phases=2

New Load.load_p1ulv1102 conn=wye bus1=p1ulv1102.1.2 kV=0.2080002494301389 Vminpu=0.8 Vmaxpu=1.2 model=1 kW=19.3402 kvar=3.9271951083937697 Phases=2

New Load.load_p1ulv1103 conn=wye bus1=p1ulv1103.1.2 kV=0.2080002494301389 Vminpu=0.8 Vmaxpu=1.2 model=1 kW=13.5201 kvar=2.7524396328169582 Phases=2

New Load.load_p1ulv1104 conn=wye bus1=p1ulv1104.1.2 kV=0.2080002494301389 Vminpu=0.8 Vmaxpu=1.2 model=1 kW=10.49 kvar=0.6102734204701886 Phases=2

New Load.load_p1ulv1105 conn=wye bus1=p1ulv1105.1.2 kV=0.2080002494301389 Vminpu=0.8 Vmaxpu=1.2 model=1 kW=15.2102 kvar=3.0885628399753324 Phases=2

New Load.load_p1ulv1107 conn=wye bus1=p1ulv1107.1.2 kV=0.2080002494301389 Vminpu=0.8 Vmaxpu=1.2 model=1 kW=3.33003 kvar=0.6796683639857601 Phases=2

New Load.load_p1ulv1108 conn=wye bus1=p1ulv1108.1.2 kV=0.2080002494301389 Vminpu=0.8 Vmaxpu=1.2 model=1 kW=6.51007 kvar=1.3185158937715642 Phases=2

New Load.load_p1ulv2827 conn=wye bus1=p1ulv2827.1.2 kV=0.2080002494301389 Vminpu=0.8 Vmaxpu=1.2 model=1 kW=9.74 kvar=0.4595226532057354 Phases=2

New Load.load_p1ulv2829 conn=wye bus1=p1ulv2829.1.2 kV=0.2080002494301389 Vminpu=0.8 Vmaxpu=1.2 model=1 kW=3.52004 kvar=0.7202814017128122 Phases=2

New Load.load_p1ulv2830 conn=wye bus1=p1ulv2830.1.2 kV=0.2080002494301389 Vminpu=0.8 Vmaxpu=1.2 model=1 kW=25.59 kvar=0.6306836979747686 Phases=2

New Load.load_p1ulv2831 conn=wye bus1=p1ulv2831.1.2 kV=0.2080002494301389 Vminpu=0.8 Vmaxpu=1.2 model=1 kW=10.63 kvar=0.6404763570309296 Phases=2

New Load.load_p1ulv2832 conn=wye bus1=p1ulv2832.1.2 kV=0.2080002494301389 Vminpu=0.8 Vmaxpu=1.2 model=1 kW=19.31 kvar=0.8706702910749454 Phases=2

New Load.load_p1ulv2833 conn=wye bus1=p1ulv2833.1.2 kV=0.2080002494301389 Vminpu=0.8 Vmaxpu=1.2 model=1 kW=2.85003 kvar=0.5802128332421591 Phases=2

New Load.load_p1ulv2834 conn=wye bus1=p1ulv2834.1.2 kV=0.2080002494301389 Vminpu=0.8 Vmaxpu=1.2 model=1 kW=26.37 kvar=0.7898859035382418 Phases=2

New Load.load_p1ulv2835 conn=wye bus1=p1ulv2835.1.2 kV=0.2080002494301389 Vminpu=0.8 Vmaxpu=1.2 model=1 kW=10.88 kvar=0.6898735027380501 Phases=2

New Load.load_p1ulv2837 conn=wye bus1=p1ulv2837.1.2.3 kV=0.48 Vminpu=0.8 Vmaxpu=1.2 model=1 kW=31.570299999999996 kvar=6.410622833813705 Phases=3

New Load.load_p1ulv2838 conn=wye bus1=p1ulv2838.1.2 kV=0.2080002494301389 Vminpu=0.8 Vmaxpu=1.2 model=1 kW=11.33 kvar=0.7797245502085238 Phases=2

New Load.load_p1ulv2839 conn=wye bus1=p1ulv2839.1.2.3 kV=0.48 Vminpu=0.8 Vmaxpu=1.2 model=1 kW=44.680400000000006 kvar=9.072742180591566 Phases=3

New Load.load_p1ulv2840 conn=wye bus1=p1ulv2840.1.2 kV=0.2080002494301389 Vminpu=0.8 Vmaxpu=1.2 model=1 kW=3.85004 kvar=0.7797671809452545 Phases=2

New Load.load_p1ulv2841 conn=wye bus1=p1ulv2841.1.2 kV=0.2080002494301389 Vminpu=0.8 Vmaxpu=1.2 model=1 kW=14.510100000000001 kvar=2.9464014716654656 Phases=2

New Load.load_p1ulv2842 conn=wye bus1=p1ulv2842.1.2 kV=0.2080002494301389 Vminpu=0.8 Vmaxpu=1.2 model=1 kW=2.22002 kvar=0.4496313641006546 Phases=2

New Load.load_p1ulv2843 conn=wye bus1=p1ulv2843.1.2 kV=0.2080002494301389 Vminpu=0.8 Vmaxpu=1.2 model=1 kW=2.85003 kvar=0.5802128332421591 Phases=2

New Load.load_p1ulv2844 conn=wye bus1=p1ulv2844.1.2 kV=0.2080002494301389 Vminpu=0.8 Vmaxpu=1.2 model=1 kW=5.94006 kvar=1.2092851802361448 Phases=2

New Load.load_p1ulv2859 conn=wye bus1=p1ulv2859.1.2 kV=0.2080002494301389 Vminpu=0.8 Vmaxpu=1.2 model=1 kW=7.82008 kvar=1.5920221095849323 Phases=2

New Load.load_p1ulv2881 conn=wye bus1=p1ulv2881.1.2.3 kV=0.48 Vminpu=0.8 Vmaxpu=1.2 model=1 kW=30.730300000000003 kvar=6.240053558881143 Phases=3

New Load.load_p1ulv2890 conn=wye bus1=p1ulv2890.1.2 kV=0.2080002494301389 Vminpu=0.8 Vmaxpu=1.2 model=1 kW=15.6102 kvar=3.169786304228934 Phases=2

New Load.load_p1ulv2899 conn=wye bus1=p1ulv2899.1.2 kV=0.2080002494301389 Vminpu=0.8 Vmaxpu=1.2 model=1 kW=10.45 kvar=0.6005709639720869 Phases=2

New Load.load_p1ulv2900 conn=wye bus1=p1ulv2900.1.2 kV=0.2080002494301389 Vminpu=0.8 Vmaxpu=1.2 model=1 kW=10.61 kvar=0.6298893844622836 Phases=2

New Load.load_p1ulv2901 conn=wye bus1=p1ulv2901.1.2 kV=0.2080002494301389 Vminpu=0.8 Vmaxpu=1.2 model=1 kW=10.69 kvar=0.6494304777239135 Phases=2

New Load.load_p1ulv2902 conn=wye bus1=p1ulv2902.1.2 kV=0.2080002494301389 Vminpu=0.8 Vmaxpu=1.2 model=1 kW=3.42003 kvar=0.6908795546178332 Phases=2

New Load.load_p1ulv2903 conn=wye bus1=p1ulv2903.1.2 kV=0.2080002494301389 Vminpu=0.8 Vmaxpu=1.2 model=1 kW=9.54 kvar=0.4099544614599067 Phases=2

New Load.load_p1ulv2904 conn=wye bus1=p1ulv2904.1.2 kV=0.2080002494301389 Vminpu=0.8 Vmaxpu=1.2 model=1 kW=2.28002 kvar=0.46058636974522216 Phases=2

New Load.load_p1ulv2912 conn=wye bus1=p1ulv2912.1.2 kV=0.2080002494301389 Vminpu=0.8 Vmaxpu=1.2 model=1 kW=10.74 kvar=0.6596095430888772 Phases=2

New Load.load_p1ulv2916 conn=wye bus1=p1ulv2916.1.2 kV=0.2080002494301389 Vminpu=0.8 Vmaxpu=1.2 model=1 kW=18.6902 kvar=3.7952069789816676 Phases=2

New Load.load_p1ulv2918 conn=wye bus1=p1ulv2918.1.2.3 kV=0.48 Vminpu=0.8 Vmaxpu=1.2 model=1 kW=33.5103 kvar=6.804556635443674 Phases=3

New Load.load_p1ulv2919 conn=wye bus1=p1ulv2919.1.2 kV=0.2080002494301389 Vminpu=0.8 Vmaxpu=1.2 model=1 kW=10.7 kvar=0.6497938057886328 Phases=2

New Load.load_p1ulv2921 conn=wye bus1=p1ulv2921.1.2 kV=0.2080002494301389 Vminpu=0.8 Vmaxpu=1.2 model=1 kW=10.5 kvar=0.6107500293370508 Phases=2

New Load.load_p1ulv2922 conn=wye bus1=p1ulv2922.1.2 kV=0.2080002494301389 Vminpu=0.8 Vmaxpu=1.2 model=1 kW=10.44 kvar=0.6000682817178988 Phases=2

New Load.load_p1ulv2923 conn=wye bus1=p1ulv2923.1.2 kV=0.2080002494301389 Vminpu=0.8 Vmaxpu=1.2 model=1 kW=2.56003 kvar=0.5198362629828699 Phases=2

New Load.load_p1ulv2924 conn=wye bus1=p1ulv2924.1.2 kV=0.2080002494301389 Vminpu=0.8 Vmaxpu=1.2 model=1 kW=3.55004 kvar=0.7208663675971405 Phases=2

New Load.load_p1ulv2925 conn=wye bus1=p1ulv2925.1.2 kV=0.2080002494301389 Vminpu=0.8 Vmaxpu=1.2 model=1 kW=3.43003 kvar=0.70007864149034 Phases=2

New Load.load_p1ulv2926 conn=wye bus1=p1ulv2926.1.2 kV=0.2080002494301389 Vminpu=0.8 Vmaxpu=1.2 model=1 kW=6.75007 kvar=1.3706601733857733 Phases=2

New Load.load_p1ulv2927 conn=wye bus1=p1ulv2927.1.2 kV=0.2080002494301389 Vminpu=0.8 Vmaxpu=1.2 model=1 kW=3.24003 kvar=0.6596095430888772 Phases=2

New Load.load_p1ulv2928 conn=wye bus1=p1ulv2928.1.2 kV=0.2080002494301389 Vminpu=0.8 Vmaxpu=1.2 model=1 kW=3.31003 kvar=0.6703963496338274 Phases=2

New Load.load_p1ulv2929 conn=wye bus1=p1ulv2929.1.2 kV=0.2080002494301389 Vminpu=0.8 Vmaxpu=1.2 model=1 kW=3.53004 kvar=0.7204909600226704 Phases=2

New Load.load_p1ulv2930 conn=wye bus1=p1ulv2930.1.2 kV=0.2080002494301389 Vminpu=0.8 Vmaxpu=1.2 model=1 kW=3.25003 kvar=0.659946738820333 Phases=2

New Load.load_p1ulv2931 conn=wye bus1=p1ulv2931.1.2 kV=0.2080002494301389 Vminpu=0.8 Vmaxpu=1.2 model=1 kW=10.73 kvar=0.6592580864811803 Phases=2

New Load.load_p1ulv2932 conn=wye bus1=p1ulv2932.1.2 kV=0.2080002494301389 Vminpu=0.8 Vmaxpu=1.2 model=1 kW=3.51004 kvar=0.7109053401536299 Phases=2

New Load.load_p1ulv2933 conn=wye bus1=p1ulv2933.1.2 kV=0.2080002494301389 Vminpu=0.8 Vmaxpu=1.2 model=1 kW=3.24003 kvar=0.6596095430888772 Phases=2

New Load.load_p1ulv2934 conn=wye bus1=p1ulv2934.1.2 kV=0.2080002494301389 Vminpu=0.8 Vmaxpu=1.2 model=1 kW=10.57 kvar=0.620176126836135 Phases=2

New Load.load_p1ulv2935 conn=wye bus1=p1ulv2935.1.2 kV=0.2080002494301389 Vminpu=0.8 Vmaxpu=1.2 model=1 kW=10.98 kvar=0.71028378024263 Phases=2

New Load.load_p1ulv2936 conn=wye bus1=p1ulv2936.1.2 kV=0.2080002494301389 Vminpu=0.8 Vmaxpu=1.2 model=1 kW=3.0100300000000004 kvar=0.6096359018765115 Phases=2

New Load.load_p1ulv2937 conn=wye bus1=p1ulv2937.1.2 kV=0.2080002494301389 Vminpu=0.8 Vmaxpu=1.2 model=1 kW=10.58 kvar=0.6302452033833459 Phases=2

New Load.load_p1ulv2938 conn=wye bus1=p1ulv2938.1.2 kV=0.2080002494301389 Vminpu=0.8 Vmaxpu=1.2 model=1 kW=2.66003 kvar=0.5401421290462703 Phases=2

New Load.load_p1ulv2939 conn=wye bus1=p1ulv2936.1.2 kV=0.2080002494301389 Vminpu=0.8 Vmaxpu=1.2 model=1 kW=3.0500300000000005 kvar=0.6193350066935321 Phases=2

New Load.load_p1ulv2940 conn=wye bus1=p1ulv2940.1.2 kV=0.2080002494301389 Vminpu=0.8 Vmaxpu=1.2 model=1 kW=10.42 kvar=0.5898746577868357 Phases=2

New Load.load_p1ulv2941 conn=wye bus1=p1ulv2941.1.2 kV=0.2080002494301389 Vminpu=0.8 Vmaxpu=1.2 model=1 kW=10.56 kvar=0.6197626431693976 Phases=2

New Load.load_p1ulv2942 conn=wye bus1=p1ulv2942.1.2 kV=0.2080002494301389 Vminpu=0.8 Vmaxpu=1.2 model=1 kW=10.71 kvar=0.6501428670480555 Phases=2

New Load.load_p1ulv2943 conn=wye bus1=p1ulv2943.1.2 kV=0.2080002494301389 Vminpu=0.8 Vmaxpu=1.2 model=1 kW=3.41003 kvar=0.6906498322195993 Phases=2

New Load.load_p1ulv2944 conn=wye bus1=p1ulv2944.1.2 kV=0.2080002494301389 Vminpu=0.8 Vmaxpu=1.2 model=1 kW=8.74009 kvar=1.7701726061307959 Phases=2

New Load.load_p1ulv2945 conn=wye bus1=p1ulv2945.1.2 kV=0.2080002494301389 Vminpu=0.8 Vmaxpu=1.2 model=1 kW=3.51004 kvar=0.7109053401536299 Phases=2

New Load.load_p1ulv2946 conn=wye bus1=p1ulv2946.1.2 kV=0.2080002494301389 Vminpu=0.8 Vmaxpu=1.2 model=1 kW=10.8 kvar=0.6700996718520332 Phases=2

New Load.load_p1ulv2947 conn=wye bus1=p1ulv2947.1.2 kV=0.2080002494301389 Vminpu=0.8 Vmaxpu=1.2 model=1 kW=11.27 kvar=0.7694756260336619 Phases=2

New Load.load_p1ulv2949 conn=wye bus1=p1ulv2949.1.2 kV=0.2080002494301389 Vminpu=0.8 Vmaxpu=1.2 model=1 kW=14.0801 kvar=2.859086247592844 Phases=2

New Load.load_p1ulv2950 conn=wye bus1=p1ulv2950.1.2 kV=0.2080002494301389 Vminpu=0.8 Vmaxpu=1.2 model=1 kW=11.2 kvar=0.7493869570665965 Phases=2

New Load.load_p1ulv2951 conn=wye bus1=p1ulv2951.1.2 kV=0.2080002494301389 Vminpu=0.8 Vmaxpu=1.2 model=1 kW=10.29 kvar=0.569452865461029 Phases=2

New Load.load_p1ulv2952 conn=wye bus1=p1ulv2952.1.2 kV=0.2080002494301389 Vminpu=0.8 Vmaxpu=1.2 model=1 kW=2.97003 kvar=0.5999751474699353 Phases=2

New Load.load_p1ulv2953 conn=wye bus1=p1ulv2953.1.2 kV=0.2080002494301389 Vminpu=0.8 Vmaxpu=1.2 model=1 kW=8.92 kvar=0.2898279815927842 Phases=2

New Load.load_p1ulv2954 conn=wye bus1=p1ulv2954.1.2 kV=0.2080002494301389 Vminpu=0.8 Vmaxpu=1.2 model=1 kW=1.57002 kvar=0.3196267240860112 Phases=2

New Load.load_p1ulv2955 conn=wye bus1=p1ulv2955.1.2 kV=0.2080002494301389 Vminpu=0.8 Vmaxpu=1.2 model=1 kW=2.84003 kvar=0.5796580042133189 Phases=2

New Load.load_p1ulv2956 conn=wye bus1=p1ulv2956.1.2 kV=0.2080002494301389 Vminpu=0.8 Vmaxpu=1.2 model=1 kW=14.6101 kvar=1.4400367892861963 Phases=2

New Load.load_p1ulv2957 conn=wye bus1=p1ulv2957.1.2 kV=0.2080002494301389 Vminpu=0.8 Vmaxpu=1.2 model=1 kW=10.54 kvar=0.6204785592224786 Phases=2

New Load.load_p1ulv2958 conn=wye bus1=p1ulv2958.1.2 kV=0.2080002494301389 Vminpu=0.8 Vmaxpu=1.2 model=1 kW=9.84 kvar=0.48003687420401825 Phases=2

New Load.load_p1ulv2960 conn=wye bus1=p1ulv2960.1.2 kV=0.2080002494301389 Vminpu=0.8 Vmaxpu=1.2 model=1 kW=2.75003 kvar=0.5598547025122315 Phases=2

New Load.load_p1ulv2961 conn=wye bus1=p1ulv2961.1.2 kV=0.2080002494301389 Vminpu=0.8 Vmaxpu=1.2 model=1 kW=18.5 kvar=0.7107134345654403 Phases=2

New Load.load_p1ulv2962 conn=wye bus1=p1ulv2962.1.2 kV=0.2080002494301389 Vminpu=0.8 Vmaxpu=1.2 model=1 kW=3.2600300000000004 kvar=0.6602696083409414 Phases=2

New Load.load_p1ulv2963 conn=wye bus1=p1ulv2963.1.2 kV=0.2080002494301389 Vminpu=0.8 Vmaxpu=1.2 model=1 kW=3.22003 kvar=0.6504775958854341 Phases=2

New Load.load_p1ulv2964 conn=wye bus1=p1ulv2964.1.2 kV=0.2080002494301389 Vminpu=0.8 Vmaxpu=1.2 model=1 kW=10.94 kvar=0.7003258045487328 Phases=2

New Load.load_p1ulv2965 conn=wye bus1=p1ulv2965.1.2 kV=0.2080002494301389 Vminpu=0.8 Vmaxpu=1.2 model=1 kW=10.79 kvar=0.6697886084538411 Phases=2

New Load.load_p1ulv2966 conn=wye bus1=p1ulv2966.1.2 kV=0.2080002494301389 Vminpu=0.8 Vmaxpu=1.2 model=1 kW=3.34003 kvar=0.679967673818805 Phases=2

New Load.load_p1ulv2967 conn=wye bus1=p1ulv2967.1.2 kV=0.2080002494301389 Vminpu=0.8 Vmaxpu=1.2 model=1 kW=3.65004 kvar=0.7392602157737106 Phases=2

New Load.load_p1ulv2968 conn=wye bus1=p1ulv2968.1.2 kV=0.2080002494301389 Vminpu=0.8 Vmaxpu=1.2 model=1 kW=10.35 kvar=0.5802128332421591 Phases=2

New Load.load_p1ulv2969 conn=wye bus1=p1ulv2969.1.2 kV=0.2080002494301389 Vminpu=0.8 Vmaxpu=1.2 model=1 kW=10.5 kvar=0.6107500293370508 Phases=2

New Load.load_p1ulv2970 conn=wye bus1=p1ulv2970.1.2 kV=0.2080002494301389 Vminpu=0.8 Vmaxpu=1.2 model=1 kW=3.24003 kvar=0.6596095430888772 Phases=2

New Load.load_p1ulv2971 conn=wye bus1=p1ulv2971.1.2 kV=0.2080002494301389 Vminpu=0.8 Vmaxpu=1.2 model=1 kW=18.36 kvar=0.6805230909267135 Phases=2

New Load.load_p1ulv2972 conn=wye bus1=p1ulv2972.1.2 kV=0.2080002494301389 Vminpu=0.8 Vmaxpu=1.2 model=1 kW=10.85 kvar=0.6802526048837334 Phases=2

New Load.load_p1ulv2973 conn=wye bus1=p1ulv2973.1.2 kV=0.2080002494301389 Vminpu=0.8 Vmaxpu=1.2 model=1 kW=3.21003 kvar=0.6501428670480555 Phases=2

New Load.load_p1ulv2974 conn=wye bus1=p1ulv2974.1.2 kV=0.2080002494301389 Vminpu=0.8 Vmaxpu=1.2 model=1 kW=3.53004 kvar=0.7204909600226704 Phases=2

New Load.load_p1ulv2975 conn=wye bus1=p1ulv2975.1.2 kV=0.2080002494301389 Vminpu=0.8 Vmaxpu=1.2 model=1 kW=9.41 kvar=0.3898403823929759 Phases=2

New Load.load_p1ulv2976 conn=wye bus1=p1ulv2976.1.2 kV=0.2080002494301389 Vminpu=0.8 Vmaxpu=1.2 model=1 kW=10.9 kvar=0.6904055379154336 Phases=2

New Load.load_p1ulv2977 conn=wye bus1=p1ulv2977.1.2 kV=0.2080002494301389 Vminpu=0.8 Vmaxpu=1.2 model=1 kW=10.61 kvar=0.6298893844622836 Phases=2

New Load.load_p1ulv2978 conn=wye bus1=p1ulv2978.1.2 kV=0.2080002494301389 Vminpu=0.8 Vmaxpu=1.2 model=1 kW=3.11003 kvar=0.6298893844622836 Phases=2

New Load.load_p1ulv2979 conn=wye bus1=p1ulv2979.1.2 kV=0.2080002494301389 Vminpu=0.8 Vmaxpu=1.2 model=1 kW=3.35003 kvar=0.6802526048837334 Phases=2

New Load.load_p1ulv2980 conn=wye bus1=p1ulv2980.1.2 kV=0.2080002494301389 Vminpu=0.8 Vmaxpu=1.2 model=1 kW=3.52004 kvar=0.7092301716051945 Phases=2

New Load.load_p1ulv2981 conn=wye bus1=p1ulv2981.1.2 kV=0.2080002494301389 Vminpu=0.8 Vmaxpu=1.2 model=1 kW=10.64 kvar=0.6392514123589496 Phases=2

New Load.load_p1ulv2982 conn=wye bus1=p1ulv2982.1.2 kV=0.2080002494301389 Vminpu=0.8 Vmaxpu=1.2 model=1 kW=10.99 kvar=0.7105048699136965 Phases=2

New Load.load_p1ulv2983 conn=wye bus1=p1ulv2983.1.2 kV=0.2080002494301389 Vminpu=0.8 Vmaxpu=1.2 model=1 kW=2.94003 kvar=0.6000682817178988 Phases=2

New Load.load_p1ulv2984 conn=wye bus1=p1ulv2984.1.2 kV=0.2080002494301389 Vminpu=0.8 Vmaxpu=1.2 model=1 kW=18.31 kvar=0.6703963496338274 Phases=2

New Load.load_p1ulv2985 conn=wye bus1=p1ulv2985.1.2 kV=0.2080002494301389 Vminpu=0.8 Vmaxpu=1.2 model=1 kW=3.2600300000000004 kvar=0.6602696083409414 Phases=2

New Load.load_p1ulv2986 conn=wye bus1=p1ulv2986.1.2 kV=0.2080002494301389 Vminpu=0.8 Vmaxpu=1.2 model=1 kW=3.33003 kvar=0.6796683639857601 Phases=2

New Load.load_p1ulv2987 conn=wye bus1=p1ulv2987.1.2 kV=0.2080002494301389 Vminpu=0.8 Vmaxpu=1.2 model=1 kW=18.07 kvar=0.620176126836135 Phases=2

New Load.load_p1ulv2988 conn=wye bus1=p1ulv2988.1.2 kV=0.2080002494301389 Vminpu=0.8 Vmaxpu=1.2 model=1 kW=11.2101 kvar=2.282166812955628 Phases=2

New Load.load_p1ulv2989 conn=wye bus1=p1ulv2989.1.2 kV=0.2080002494301389 Vminpu=0.8 Vmaxpu=1.2 model=1 kW=3.13003 kvar=0.6306495704677809 Phases=2

New Load.load_p1ulv2990 conn=wye bus1=p1ulv2990.1.2 kV=0.2080002494301389 Vminpu=0.8 Vmaxpu=1.2 model=1 kW=10.76 kvar=0.6602696083409414 Phases=2

New Load.load_p1ulv2991 conn=wye bus1=p1ulv2991.1.2 kV=0.2080002494301389 Vminpu=0.8 Vmaxpu=1.2 model=1 kW=11.17 kvar=0.749065348529082 Phases=2

New Load.load_p1ulv2992 conn=wye bus1=p1ulv2992.1.2 kV=0.2080002494301389 Vminpu=0.8 Vmaxpu=1.2 model=1 kW=10.55 kvar=0.6193350066935321 Phases=2

New Load.load_p1ulv2993 conn=wye bus1=p1ulv2993.1.2 kV=0.2080002494301389 Vminpu=0.8 Vmaxpu=1.2 model=1 kW=3.39003 kvar=0.6901467391837689 Phases=2

New Load.load_p1ulv2994 conn=wye bus1=p1ulv2994.1.2 kV=0.2080002494301389 Vminpu=0.8 Vmaxpu=1.2 model=1 kW=18.59 kvar=0.7308650364566972 Phases=2

New Load.load_p1ulv2995 conn=wye bus1=p1ulv2995.1.2 kV=0.2080002494301389 Vminpu=0.8 Vmaxpu=1.2 model=1 kW=25.59 kvar=0.6306836979747686 Phases=2

New Load.load_p1ulv2996 conn=wye bus1=p1ulv2996.1.2 kV=0.2080002494301389 Vminpu=0.8 Vmaxpu=1.2 model=1 kW=3.9600400000000002 kvar=0.7999668632932473 Phases=2

New Load.load_p1ulv2997 conn=wye bus1=p1ulv2997.1.2 kV=0.2080002494301389 Vminpu=0.8 Vmaxpu=1.2 model=1 kW=10.37 kvar=0.5797741681037358 Phases=2

New Load.load_p1ulv2998 conn=wye bus1=p1ulv2998.1.2 kV=0.2080002494301389 Vminpu=0.8 Vmaxpu=1.2 model=1 kW=2.5100300000000004 kvar=0.5096833299511698 Phases=2

New Load.load_p1ulv2999 conn=wye bus1=p1ulv2999.1.2 kV=0.2080002494301389 Vminpu=0.8 Vmaxpu=1.2 model=1 kW=3.31003 kvar=0.6703963496338274 Phases=2

New Load.load_p1ulv3000 conn=wye bus1=p1ulv3000.1.2 kV=0.2080002494301389 Vminpu=0.8 Vmaxpu=1.2 model=1 kW=10.83 kvar=0.6796683639857601 Phases=2

New Load.load_p1ulv3001 conn=wye bus1=p1ulv3001.1.2 kV=0.2080002494301389 Vminpu=0.8 Vmaxpu=1.2 model=1 kW=3.21003 kvar=0.6501428670480555 Phases=2

New Load.load_p1ulv3002 conn=wye bus1=p1ulv3002.1.2 kV=0.2080002494301389 Vminpu=0.8 Vmaxpu=1.2 model=1 kW=3.79004 kvar=0.7696004461493017 Phases=2

New Load.load_p1ulv3003 conn=wye bus1=p1ulv1076.1.2 kV=0.2080002494301389 Vminpu=0.8 Vmaxpu=1.2 model=1 kW=17.93 kvar=0.5903528595437461 Phases=2

New Load.load_p1ulv3004 conn=wye bus1=p1ulv3004.1.2 kV=0.2080002494301389 Vminpu=0.8 Vmaxpu=1.2 model=1 kW=17.96 kvar=0.5995091605836256 Phases=2

New Load.load_p1ulv9357 conn=wye bus1=p1ulv9357.1.2.3 kV=0.48 Vminpu=0.8 Vmaxpu=1.2 model=1 kW=25.420300000000005 kvar=5.161812070914579 Phases=3

New Load.load_p1ulv9358 conn=wye bus1=p1ulv9358.1.2 kV=0.2080002494301389 Vminpu=0.8 Vmaxpu=1.2 model=1 kW=2.06002 kvar=0.4204557986498457 Phases=2

New Load.load_p1ulv9359 conn=wye bus1=p1ulv9359.1.2 kV=0.2080002494301389 Vminpu=0.8 Vmaxpu=1.2 model=1 kW=3.20003 kvar=0.6497938057886328 Phases=2

New Load.load_p1ulv9360 conn=wye bus1=p1ulv9360.1.2.3 kV=0.48 Vminpu=0.8 Vmaxpu=1.2 model=1 kW=20.9402 kvar=6.8827108992664305 Phases=3

New Load.load_p1ulv9361 conn=wye bus1=p1ulv9361.1.2 kV=0.2080002494301389 Vminpu=0.8 Vmaxpu=1.2 model=1 kW=9.87 kvar=0.4800115879793125 Phases=2

New Load.load_p1ulv9362 conn=wye bus1=p1ulv9362.1.2.3 kV=0.48 Vminpu=0.8 Vmaxpu=1.2 model=1 kW=122.501 kvar=24.87488898632616 Phases=3

New Load.load_p1ulv9363 conn=wye bus1=p1ulv9363.1.2 kV=0.2080002494301389 Vminpu=0.8 Vmaxpu=1.2 model=1 kW=11.59 kvar=0.8305180443395029 Phases=2

New Load.load_p1ulv9364 conn=wye bus1=p1ulv9364.1.2 kV=0.2080002494301389 Vminpu=0.8 Vmaxpu=1.2 model=1 kW=13.5401 kvar=4.450415652532325 Phases=2

New Load.load_p1ulv9365 conn=wye bus1=p1ulv9365.1.2 kV=0.2080002494301389 Vminpu=0.8 Vmaxpu=1.2 model=1 kW=3.0300300000000004 kvar=0.6200140497357622 Phases=2

New Load.load_p1ulv9366 conn=wye bus1=p1ulv9366.1.2 kV=0.2080002494301389 Vminpu=0.8 Vmaxpu=1.2 model=1 kW=9.82 kvar=0.46988484668642644 Phases=2

New Load.load_p1ulv9367 conn=wye bus1=p1ulv9367.1.2.3 kV=0.48 Vminpu=0.8 Vmaxpu=1.2 model=1 kW=304.653 kvar=61.8624301381313 Phases=3

New Load.load_p1ulv9368 conn=wye bus1=p1ulv9368.1.2.3 kV=0.48 Vminpu=0.8 Vmaxpu=1.2 model=1 kW=81.8208 kvar=16.61442206000274 Phases=3

New Load.load_p1ulv9369 conn=wye bus1=p1ulv9369.1.2.3 kV=0.48 Vminpu=0.8 Vmaxpu=1.2 model=1 kW=185.912 kvar=37.75104171578901 Phases=3

New Load.load_p1ulv9370 conn=wye bus1=p1ulv9370.1.2.3 kV=0.48 Vminpu=0.8 Vmaxpu=1.2 model=1 kW=248.272 kvar=50.41377979292551 Phases=3

New Load.load_p1ulv9371 conn=wye bus1=p1ulv9371.1.2.3 kV=0.48 Vminpu=0.8 Vmaxpu=1.2 model=1 kW=204.732 kvar=41.57260570892097 Phases=3

New Load.load_p1umv14 conn=wye bus1=p1umv14.1.2.3 kV=12.47 Vminpu=0.8 Vmaxpu=1.2 model=1 kW=1018.0900000000001 kvar=206.73199180487345 Phases=3

New Load.load_p1ulv9372 conn=wye bus1=p1ulv9372.1.2.3 kV=0.48 Vminpu=0.8 Vmaxpu=1.2 model=1 kW=69.8307 kvar=14.179728413134963 Phases=3

New Load.load_p1umv16 conn=wye bus1=p1umv16.1.2.3 kV=12.47 Vminpu=0.8 Vmaxpu=1.2 model=1 kW=1309.18 kvar=265.8403373288258 Phases=3

New Load.load_p1ulv9373 conn=wye bus1=p1ulv9373.1.2.3 kV=0.48 Vminpu=0.8 Vmaxpu=1.2 model=1 kW=120.821 kvar=24.53375043646103 Phases=3

New Load.load_p1ulv9374 conn=wye bus1=p1ulv9374.1.2.3 kV=0.48 Vminpu=0.8 Vmaxpu=1.2 model=1 kW=25.9403 kvar=8.526164293571263 Phases=3

New Load.load_p1ulv9379 conn=wye bus1=p1ulv9379.1.2.3 kV=0.48 Vminpu=0.8 Vmaxpu=1.2 model=1 kW=28.200300000000002 kvar=9.268990371275494 Phases=3

New Load.load_p1ulv9380 conn=wye bus1=p1ulv9380.1.2.3 kV=0.48 Vminpu=0.8 Vmaxpu=1.2 model=1 kW=23.530199999999997 kvar=7.734002731679686 Phases=3

New Load.load_p1ulv9381 conn=wye bus1=p1ulv9381.1.2 kV=0.2080002494301389 Vminpu=0.8 Vmaxpu=1.2 model=1 kW=15.570200000000002 kvar=5.117677254455935 Phases=2

New Load.load_p1ulv9382 conn=wye bus1=p1ulv9382.1.2.3 kV=0.48 Vminpu=0.8 Vmaxpu=1.2 model=1 kW=60.96060000000001 kvar=20.036780262166605 Phases=3

New Load.load_p1ulv9383 conn=wye bus1=p1ulv9383.1.2.3 kV=0.48 Vminpu=0.8 Vmaxpu=1.2 model=1 kW=41.73040000000001 kvar=13.716119182756033 Phases=3

New Load.load_p1ulv9384 conn=wye bus1=p1ulv9384.1.2.3 kV=0.48 Vminpu=0.8 Vmaxpu=1.2 model=1 kW=29.740300000000005 kvar=9.775163893250944 Phases=3

New Load.load_p1ulv9385 conn=wye bus1=p1ulv9385.1.2 kV=0.2080002494301389 Vminpu=0.8 Vmaxpu=1.2 model=1 kW=9.25009 kvar=3.04035755447395 Phases=2

New Load.load_p1ulv9386 conn=wye bus1=p1ulv9386.1.2.3 kV=0.48 Vminpu=0.8 Vmaxpu=1.2 model=1 kW=68.7207 kvar=22.5874017867651 Phases=3

New Load.load_p1ulv9387 conn=wye bus1=p1ulv9387.1.2.3 kV=0.48 Vminpu=0.8 Vmaxpu=1.2 model=1 kW=41.3504 kvar=13.591219222788062 Phases=3

New Load.load_p1ulv9388 conn=wye bus1=p1ulv9388.1.2.3 kV=0.48 Vminpu=0.8 Vmaxpu=1.2 model=1 kW=35.060399999999994 kvar=11.523796201213013 Phases=3

New Load.load_p1ulv9389 conn=wye bus1=p1ulv9389.1.2 kV=0.2080002494301389 Vminpu=0.8 Vmaxpu=1.2 model=1 kW=10.6901 kvar=3.509871070820898 Phases=2

New Load.load_p1ulv9390 conn=wye bus1=p1ulv9390.1.2.3 kV=0.48 Vminpu=0.8 Vmaxpu=1.2 model=1 kW=203.372 kvar=66.84514383843576 Phases=3

New Load.load_p1ulv9391 conn=wye bus1=p1ulv9391.1.2 kV=0.2080002494301389 Vminpu=0.8 Vmaxpu=1.2 model=1 kW=15.2002 kvar=3.0865322533689925 Phases=2

New Load.load_p1ulv9392 conn=wye bus1=p1ulv9392.1.2 kV=0.2080002494301389 Vminpu=0.8 Vmaxpu=1.2 model=1 kW=17.6002 kvar=5.791149117953615 Phases=2

New Load.load_p1ulv9393 conn=wye bus1=p1ulv9393.1.2.3 kV=0.48 Vminpu=0.8 Vmaxpu=1.2 model=1 kW=56.1406 kvar=18.452522875204483 Phases=3

New Load.load_p1ulv10503 conn=wye bus1=p1ulv10503.1.2 kV=0.2080002494301389 Vminpu=0.8 Vmaxpu=1.2 model=1 kW=4.14004 kvar=1.3592956687066866 Phases=2

New Load.load_p1ulv10504 conn=wye bus1=p1ulv10504.1.2 kV=0.2080002494301389 Vminpu=0.8 Vmaxpu=1.2 model=1 kW=8.400080000000003 kvar=2.7609727782308657 Phases=2

New Load.load_p1ulv10507 conn=wye bus1=p1ulv10507.1.2 kV=0.2080002494301389 Vminpu=0.8 Vmaxpu=1.2 model=1 kW=14.0201 kvar=2.846902727954803 Phases=2

New Load.load_p1ulv10508 conn=wye bus1=p1ulv10508.1.2 kV=0.2080002494301389 Vminpu=0.8 Vmaxpu=1.2 model=1 kW=13.340100000000001 kvar=4.379943225213784 Phases=2

New Load.load_p1ulv24163 conn=wye bus1=p1ulv24163.1.2.3 kV=0.48 Vminpu=0.8 Vmaxpu=1.2 model=1 kW=70.18070000000002 kvar=23.06728058032624 Phases=3

New Load.load_p1ulv24164 conn=wye bus1=p1ulv24164.1.2.3 kV=0.48 Vminpu=0.8 Vmaxpu=1.2 model=1 kW=75.64079999999998 kvar=24.86192866301335 Phases=3

New Load.load_p1ulv24165 conn=wye bus1=p1ulv24165.1.2.3 kV=0.48 Vminpu=0.8 Vmaxpu=1.2 model=1 kW=125.191 kvar=41.14829181144706 Phases=3

New Load.load_p1ulv24166 conn=wye bus1=p1ulv24166.1.2.3 kV=0.48 Vminpu=0.8 Vmaxpu=1.2 model=1 kW=65.0407 kvar=21.377844279706885 Phases=3

New Load.load_p1ulv24170 conn=wye bus1=p1ulv24170.1.2 kV=0.2080002494301389 Vminpu=0.8 Vmaxpu=1.2 model=1 kW=2.79003 kvar=0.569452865461029 Phases=2

New Load.load_p1ulv24171 conn=wye bus1=p1ulv24171.1.2 kV=0.2080002494301389 Vminpu=0.8 Vmaxpu=1.2 model=1 kW=2.08002 kvar=0.4201844110128231 Phases=2

New Load.load_p1ulv24172 conn=wye bus1=p1ulv24172.1.2 kV=0.2080002494301389 Vminpu=0.8 Vmaxpu=1.2 model=1 kW=2.03002 kvar=0.4100839213297234 Phases=2

New Load.load_p1ulv24173 conn=wye bus1=p1ulv24173.1.2 kV=0.2080002494301389 Vminpu=0.8 Vmaxpu=1.2 model=1 kW=2.3500200000000007 kvar=0.47964560341312734 Phases=2

New Load.load_p1ulv24174 conn=wye bus1=p1ulv24174.1.2 kV=0.2080002494301389 Vminpu=0.8 Vmaxpu=1.2 model=1 kW=1.41001 kvar=0.2899829315447996 Phases=2

New Load.load_p1ulv24175 conn=wye bus1=p1ulv24174.1.2 kV=0.2080002494301389 Vminpu=0.8 Vmaxpu=1.2 model=1 kW=2.45002 kvar=0.500055880917707 Phases=2

New Load.load_p1ulv24176 conn=wye bus1=p1ulv24176.1.2 kV=0.2080002494301389 Vminpu=0.8 Vmaxpu=1.2 model=1 kW=2.81003 kvar=0.570600928141371 Phases=2

New Load.load_p1ulv24177 conn=wye bus1=p1ulv24177.1.2 kV=0.2080002494301389 Vminpu=0.8 Vmaxpu=1.2 model=1 kW=2.47002 kvar=0.5002650705650844 Phases=2

New Load.load_p1ulv24178 conn=wye bus1=p1ulv24177.1.2 kV=0.2080002494301389 Vminpu=0.8 Vmaxpu=1.2 model=1 kW=2.67003 kvar=0.5393722093713369 Phases=2

New Load.load_p1ulv24179 conn=wye bus1=p1ulv24179.1.2 kV=0.2080002494301389 Vminpu=0.8 Vmaxpu=1.2 model=1 kW=2.74003 kvar=0.5606733585797765 Phases=2

New Load.load_p1ulv24180 conn=wye bus1=p1ulv24180.1.2 kV=0.2080002494301389 Vminpu=0.8 Vmaxpu=1.2 model=1 kW=2.74003 kvar=0.5606733585797765 Phases=2

New Load.load_p1ulv24181 conn=wye bus1=p1ulv24180.1.2 kV=0.2080002494301389 Vminpu=0.8 Vmaxpu=1.2 model=1 kW=2.81003 kvar=0.570600928141371 Phases=2

New Load.load_p1ulv24182 conn=wye bus1=p1ulv24182.1.2 kV=0.2080002494301389 Vminpu=0.8 Vmaxpu=1.2 model=1 kW=2.92003 kvar=0.5898746577868357 Phases=2

New Load.load_p1ulv24183 conn=wye bus1=p1ulv24182.1.2 kV=0.2080002494301389 Vminpu=0.8 Vmaxpu=1.2 model=1 kW=2.66003 kvar=0.5401421290462703 Phases=2

New Load.load_p1ulv24184 conn=wye bus1=p1ulv24184.1.2 kV=0.2080002494301389 Vminpu=0.8 Vmaxpu=1.2 model=1 kW=2.75003 kvar=0.5598547025122315 Phases=2

New Load.load_p1ulv24185 conn=wye bus1=p1ulv24185.1.2 kV=0.2080002494301389 Vminpu=0.8 Vmaxpu=1.2 model=1 kW=2.86003 kvar=0.5807538611730713 Phases=2

New Load.load_p1ulv24186 conn=wye bus1=p1ulv24186.1.2 kV=0.2080002494301389 Vminpu=0.8 Vmaxpu=1.2 model=1 kW=2.85003 kvar=0.5802128332421591 Phases=2

New Load.load_p1ulv24187 conn=wye bus1=p1ulv24187.1.2 kV=0.2080002494301389 Vminpu=0.8 Vmaxpu=1.2 model=1 kW=2.17002 kvar=0.4395046228077686 Phases=2

New Load.load_p1ulv24188 conn=wye bus1=p1ulv24188.1.2 kV=0.2080002494301389 Vminpu=0.8 Vmaxpu=1.2 model=1 kW=2.68003 kvar=0.5399819708887028 Phases=2

New Load.load_p1ulv24189 conn=wye bus1=p1ulv24189.1.2 kV=0.2080002494301389 Vminpu=0.8 Vmaxpu=1.2 model=1 kW=2.93003 kvar=0.5903528595437461 Phases=2

New Load.load_p1ulv24196 conn=wye bus1=p1ulv24196.1.2 kV=0.2080002494301389 Vminpu=0.8 Vmaxpu=1.2 model=1 kW=2.90003 kvar=0.5903918986071232 Phases=2

New Load.load_p1ulv24197 conn=wye bus1=p1ulv24197.1.2 kV=0.2080002494301389 Vminpu=0.8 Vmaxpu=1.2 model=1 kW=3.24003 kvar=0.6596095430888772 Phases=2

New Load.load_p1ulv24519 conn=wye bus1=p1ulv24519.1.2 kV=0.2080002494301389 Vminpu=0.8 Vmaxpu=1.2 model=1 kW=5.82006 kvar=1.1787648385814788 Phases=2

New Load.load_p1ulv24520 conn=wye bus1=p1ulv24520.1.2.3 kV=0.48 Vminpu=0.8 Vmaxpu=1.2 model=1 kW=72.02070000000002 kvar=23.67205933385535 Phases=3

New Load.load_p1ulv24521 conn=wye bus1=p1ulv24521.1.2.3 kV=0.48 Vminpu=0.8 Vmaxpu=1.2 model=1 kW=56.6206 kvar=18.61029124569034 Phases=3

New Load.load_p1ulv26053 conn=wye bus1=p1ulv26053.1.2 kV=0.2080002494301389 Vminpu=0.8 Vmaxpu=1.2 model=1 kW=3.40003 kvar=0.6904055379154336 Phases=2
