New Line.l(r:p1ulv1079-udm2443) Units=km Length=0.006909200000000001 bus1=udm2443.1.2 bus2=p1ulv1079.1.2 switch=n enabled=y phases=2 Linecode=1P_OH_AL_2/0_Rucina_0_416_0_2_2

New Line.l(r:udm2443-udt586lv) Units=km Length=0.017488 bus1=udt586lv.1.2 bus2=udm2443.1.2 switch=n enabled=y phases=2 Linecode=1P_OH_AL_2/0_Rucina_0_416_0_2_2

New Line.l(r:p1ulv1086-udm2444) Units=km Length=0.00947879 bus1=udm2444.1.2 bus2=p1ulv1086.1.2 switch=n enabled=y phases=2 Linecode=1P_OH_AL_2/0_Rucina_0_416_0_2_2

New Line.l(r:udm2444-udt586lv) Units=km Length=0.0174875 bus1=udt586lv.1.2 bus2=udm2444.1.2 switch=n enabled=y phases=2 Linecode=1P_OH_AL_2/0_Rucina_0_416_0_2_2

New Line.l(r:p1ulv1083-udt588lv) Units=km Length=0.0130254 bus1=udt588lv.1.2 bus2=p1ulv1083.1.2 switch=n enabled=y phases=2 Linecode=1P_UG_AL_1/0_Brenau_0_416_0_2_2

New Line.l(r:p1ulv1099-udt588lv) Units=km Length=0.00871886 bus1=udt588lv.1.2 bus2=p1ulv1099.1.2 switch=n enabled=y phases=2 Linecode=1P_UG_AL_2/0_Converse_0_416_0_2_2

New Line.l(r:p1ulv1095-udm2453) Units=km Length=0.0123414 bus1=udm2453.1.2 bus2=p1ulv1095.1.2 switch=n enabled=y phases=2 Linecode=1P_UG_AL_1/0_Brenau_0_416_0_2_2

New Line.l(r:p1ulv33142-udm2455) Units=km Length=0.0127289 bus1=udm2455.1.2 bus2=p1ulv33142.1.2 switch=n enabled=y phases=2 Linecode=1P_UG_AL_1/0_Brenau_0_416_0_2_2

New Line.l(r:udm2453-udm2455) Units=km Length=0.00988206 bus1=udm2453.1.2 bus2=udm2455.1.2 switch=n enabled=y phases=2 Linecode=1P_UG_AL_1/0_Brenau_0_416_0_2_2

New Line.l(r:udm2453-udt588lv) Units=km Length=0.0189767 bus1=udt588lv.1.2 bus2=udm2453.1.2 switch=n enabled=y phases=2 Linecode=1P_UG_AL_1/0_Brenau_0_416_0_2_2

New Line.l(r:p1ulv47105-udm2456) Units=km Length=0.00923481 bus1=udm2456.1.2 bus2=p1ulv47105.1.2 switch=n enabled=y phases=2 Linecode=1P_UG_AL_1/0_Brenau_0_416_0_2_2

New Line.l(r:udm2456-udt588lv) Units=km Length=0.0368922 bus1=udt588lv.1.2 bus2=udm2456.1.2 switch=n enabled=y phases=2 Linecode=1P_UG_AL_1/0_Brenau_0_416_0_2_2

New Line.l(r:p1ulv24191-udt590lv) Units=km Length=0.0110336 bus1=udt590lv.1.2 bus2=p1ulv24191.1.2 switch=n enabled=y phases=2 Linecode=1P_UG_AL_1/0_Brenau_0_416_0_2_2

New Line.l(r:p1ulv31848-udt590lv) Units=km Length=0.00950371 bus1=udt590lv.1.2 bus2=p1ulv31848.1.2 switch=n enabled=y phases=2 Linecode=1P_UG_AL_1/0_Brenau_0_416_0_2_2

New Line.l(r:p1ulv1085-udm2463) Units=km Length=0.0104946 bus1=udm2463.1.2 bus2=p1ulv1085.1.2 switch=n enabled=y phases=2 Linecode=1P_UG_AL_1/0_Brenau_0_416_0_2_2

New Line.l(r:p1ulv24190-udm2463) Units=km Length=0.0109713 bus1=udm2463.1.2 bus2=p1ulv24190.1.2 switch=n enabled=y phases=2 Linecode=1P_UG_AL_1/0_Brenau_0_416_0_2_2

New Line.l(r:p1ulv36484-udm2471) Units=km Length=0.00915042 bus1=udm2471.1.2 bus2=p1ulv36484.1.2 switch=n enabled=y phases=2 Linecode=1P_UG_AL_1/0_Brenau_0_416_0_2_2

New Line.l(r:p1ulv1091-udm2464) Units=km Length=0.00952607 bus1=udm2464.1.2 bus2=p1ulv1091.1.2 switch=n enabled=y phases=2 Linecode=1P_UG_AL_1/0_Brenau_0_416_0_2_2

New Line.l(r:p1ulv24195-udm2469) Units=km Length=0.00871062 bus1=udm2469.1.2 bus2=p1ulv24195.1.2 switch=n enabled=y phases=2 Linecode=1P_UG_AL_1/0_Brenau_0_416_0_2_2

New Line.l(r:udm2464-udm2469) Units=km Length=0.0184488 bus1=udm2464.1.2 bus2=udm2469.1.2 switch=n enabled=y phases=2 Linecode=1P_UG_AL_1/0_Brenau_0_416_0_2_2

New Line.l(r:udm2464-udm2471) Units=km Length=0.00923455 bus1=udm2471.1.2 bus2=udm2464.1.2 switch=n enabled=y phases=2 Linecode=1P_UG_AL_1/0_Brenau_0_416_0_2_2

New Line.l(r:udm2463-udm2471) Units=km Length=0.00922425 bus1=udm2463.1.2 bus2=udm2471.1.2 switch=n enabled=y phases=2 Linecode=1P_UG_AL_2/0_Converse_0_416_0_2_2

New Line.l(r:udm2463-udt590lv) Units=km Length=0.00922456 bus1=udt590lv.1.2 bus2=udm2463.1.2 switch=n enabled=y phases=2 Linecode=1P_UG_AL_4/0_Sweetbriar_0_416_0_2_2

New Line.l(r:p1ulv45857-udm2473) Units=km Length=0.010400000000000001 bus1=udm2473.1.2 bus2=p1ulv45857.1.2 switch=n enabled=y phases=2 Linecode=1P_UG_AL_1/0_Brenau_0_416_0_2_2

New Line.l(r:p1ulv24193-udm2468) Units=km Length=0.00707679 bus1=udm2468.1.2 bus2=p1ulv24193.1.2 switch=n enabled=y phases=2 Linecode=1P_UG_AL_1/0_Brenau_0_416_0_2_2

New Line.l(r:p1ulv24192-udm2467) Units=km Length=0.0106399 bus1=udm2467.1.2 bus2=p1ulv24192.1.2 switch=n enabled=y phases=2 Linecode=1P_UG_AL_1/0_Brenau_0_416_0_2_2

New Line.l(r:udm2467-udm2468) Units=km Length=0.0265331 bus1=udm2468.1.2 bus2=udm2467.1.2 switch=n enabled=y phases=2 Linecode=1P_UG_AL_1/0_Brenau_0_416_0_2_2

New Line.l(r:p1ulv39110-udm2472) Units=km Length=0.00825766 bus1=udm2472.1.2 bus2=p1ulv39110.1.2 switch=n enabled=y phases=2 Linecode=1P_UG_AL_1/0_Brenau_0_416_0_2_2

New Line.l(r:udm2468-udm2472) Units=km Length=0.0262042 bus1=udm2468.1.2 bus2=udm2472.1.2 switch=n enabled=y phases=2 Linecode=1P_UG_AL_1/0_Brenau_0_416_0_2_2

New Line.l(r:udm2468-udm2473) Units=km Length=0.00922425 bus1=udm2473.1.2 bus2=udm2468.1.2 switch=n enabled=y phases=2 Linecode=1P_UG_AL_2/0_Converse_0_416_0_2_2

New Line.l(r:udm2473-udt590lv) Units=km Length=0.00922456 bus1=udt590lv.1.2 bus2=udm2473.1.2 switch=n enabled=y phases=2 Linecode=1P_UG_AL_4/0_Sweetbriar_0_416_0_2_2

New Line.l(r:p1ulv50566-udt593lv) Units=km Length=0.00962829 bus1=udt593lv.1.2 bus2=p1ulv50566.1.2 switch=n enabled=y phases=2 Linecode=1P_UG_AL_1/0_Brenau_0_416_0_2_2

New Line.l(r:p1ulv1092-udm2481) Units=km Length=0.0103382 bus1=udm2481.1.2 bus2=p1ulv1092.1.2 switch=n enabled=y phases=2 Linecode=1P_UG_AL_1/0_Brenau_0_416_0_2_2

New Line.l(r:udm2481-udt593lv) Units=km Length=0.00863881 bus1=udt593lv.1.2 bus2=udm2481.1.2 switch=n enabled=y phases=2 Linecode=1P_UG_AL_1/0_Brenau_0_416_0_2_2

New Line.l(r:p1ulv24194-udm2482) Units=km Length=0.00979094 bus1=udm2482.1.2 bus2=p1ulv24194.1.2 switch=n enabled=y phases=2 Linecode=1P_UG_AL_1/0_Brenau_0_416_0_2_2

New Line.l(r:udm2482-udt593lv) Units=km Length=0.00950573 bus1=udt593lv.1.2 bus2=udm2482.1.2 switch=n enabled=y phases=2 Linecode=1P_UG_AL_1/0_Brenau_0_416_0_2_2

New Line.l(r:p1ulv33585-udm2486) Units=km Length=0.00544435 bus1=udm2486.1.2 bus2=p1ulv33585.1.2 switch=n enabled=y phases=2 Linecode=1P_OH_AL_2/0_Rucina_0_416_0_2_2

New Line.l(r:udm2486-udt595lv) Units=km Length=0.0293222 bus1=udt595lv.1.2 bus2=udm2486.1.2 switch=n enabled=y phases=2 Linecode=1P_OH_AL_4/0_Zuzara_0_416_0_2_2

New Line.l(r:p1ulv39476-udm2487) Units=km Length=0.00883349 bus1=udm2487.1.2 bus2=p1ulv39476.1.2 switch=n enabled=y phases=2 Linecode=1P_UG_AL_4/0_Sweetbriar_0_416_0_2_2

New Line.l(r:p1ulv1094-udm2485) Units=km Length=0.00865388 bus1=udm2485.1.2 bus2=p1ulv1094.1.2 switch=n enabled=y phases=2 Linecode=1P_UG_AL_4/0_Sweetbriar_0_416_0_2_2

New Line.l(r:udm2485-udm2487) Units=km Length=0.00902865 bus1=udm2487.1.2 bus2=udm2485.1.2 switch=n enabled=y phases=2 Linecode=1P_UG_AL_4/0_Sweetbriar_0_416_0_2_2

New Line.l(r:udm2487-udt595lv) Units=km Length=0.014861300000000001 bus1=udt595lv.1.2 bus2=udm2487.1.2 switch=n enabled=y phases=2 Linecode=1P_UG_AL_4/0_Sweetbriar_0_416_0_2_2

New Line.l(r:p1ulv1100-udt598lv) Units=km Length=0.010202000000000001 bus1=udt598lv.1.2 bus2=p1ulv1100.1.2 switch=n enabled=y phases=2 Linecode=1P_OH_AL_2/0_Rucina_0_416_0_2_2

New Line.l(r:p1ulv1106-udt602lv) Units=km Length=0.0106432 bus1=udt602lv.1.2 bus2=p1ulv1106.1.2 switch=n enabled=y phases=2 Linecode=1P_UG_AL_4/0_Sweetbriar_0_416_0_2_2

New Line.l(r:p1ulv44490-udt802lv) Units=km Length=0.017921 bus1=udt802lv.1.2 bus2=p1ulv44490.1.2 switch=n enabled=y phases=2 Linecode=1P_OH_AL_2/0_Rucina_0_416_0_2_2

New Line.l(r:p1ulv47737-udt802lv) Units=km Length=0.0137216 bus1=udt802lv.1.2 bus2=p1ulv47737.1.2 switch=n enabled=y phases=2 Linecode=1P_OH_AL_2/0_Rucina_0_416_0_2_2

New Line.l(r:p1ulv1589-udm3311) Units=km Length=0.0172128 bus1=udm3311.1.2 bus2=p1ulv1589.1.2 switch=n enabled=y phases=2 Linecode=1P_OH_AL_2/0_Rucina_0_416_0_2_2

New Line.l(r:p1ulv1597-udm3311) Units=km Length=0.0140509 bus1=udm3311.1.2 bus2=p1ulv1597.1.2 switch=n enabled=y phases=2 Linecode=1P_OH_AL_2/0_Rucina_0_416_0_2_2

New Line.l(r:p1ulv42329-udm3311) Units=km Length=0.0182685 bus1=udm3311.1.2 bus2=p1ulv42329.1.2 switch=n enabled=y phases=2 Linecode=1P_OH_AL_2/0_Rucina_0_416_0_2_2

New Line.l(r:p1ulv48805-udm3318) Units=km Length=0.00981774 bus1=udm3318.1.2 bus2=p1ulv48805.1.2 switch=n enabled=y phases=2 Linecode=1P_OH_AL_2/0_Rucina_0_416_0_2_2

New Line.l(r:udm3311-udm3318) Units=km Length=0.0362287 bus1=udm3311.1.2 bus2=udm3318.1.2 switch=n enabled=y phases=2 Linecode=1P_OH_AL_4/0_Zuzara_0_416_0_2_2

New Line.l(r:udm3311-udt802lv) Units=km Length=0.0198618 bus1=udt802lv.1.2 bus2=udm3311.1.2 switch=n enabled=y phases=2 Linecode=1P_OH_AL_2/0_Rucina_0_416_0_2_2

New Line.l(r:p1ulv1598-udm3313) Units=km Length=0.0172303 bus1=udm3313.1.2 bus2=p1ulv1598.1.2 switch=n enabled=y phases=2 Linecode=1P_OH_AL_2/0_Rucina_0_416_0_2_2

New Line.l(r:p1ulv41264-udm3313) Units=km Length=0.0173452 bus1=udm3313.1.2 bus2=p1ulv41264.1.2 switch=n enabled=y phases=2 Linecode=1P_OH_AL_2/0_Rucina_0_416_0_2_2

New Line.l(r:udm3313-udt802lv) Units=km Length=0.0198523 bus1=udt802lv.1.2 bus2=udm3313.1.2 switch=n enabled=y phases=2 Linecode=1P_OH_AL_2/0_Rucina_0_416_0_2_2

New Line.l(r:p1ulv29035-udt803lv) Units=km Length=0.0156274 bus1=udt803lv.1.2 bus2=p1ulv29035.1.2 switch=n enabled=y phases=2 Linecode=1P_OH_AL_2/0_Rucina_0_416_0_2_2

New Line.l(r:p1ulv36502-udt803lv) Units=km Length=0.015186 bus1=udt803lv.1.2 bus2=p1ulv36502.1.2 switch=n enabled=y phases=2 Linecode=1P_OH_AL_2/0_Rucina_0_416_0_2_2

New Line.l(r:p1ulv1590-udm3319) Units=km Length=0.0162462 bus1=udm3319.1.2 bus2=p1ulv1590.1.2 switch=n enabled=y phases=2 Linecode=1P_OH_AL_2/0_Rucina_0_416_0_2_2

New Line.l(r:p1ulv33324-udm3319) Units=km Length=0.015049 bus1=udm3319.1.2 bus2=p1ulv33324.1.2 switch=n enabled=y phases=2 Linecode=1P_OH_AL_2/0_Rucina_0_416_0_2_2

New Line.l(r:p1ulv1600-udm3321) Units=km Length=0.0145147 bus1=udm3321.1.2 bus2=p1ulv1600.1.2 switch=n enabled=y phases=2 Linecode=1P_OH_AL_2/0_Rucina_0_416_0_2_2

New Line.l(r:p1ulv1599-udm3320) Units=km Length=0.0150481 bus1=udm3320.1.2 bus2=p1ulv1599.1.2 switch=n enabled=y phases=2 Linecode=1P_OH_AL_2/0_Rucina_0_416_0_2_2

New Line.l(r:udm3320-udm3321) Units=km Length=0.0392614 bus1=udm3321.1.2 bus2=udm3320.1.2 switch=n enabled=y phases=2 Linecode=1P_OH_AL_4/0_Zuzara_0_416_0_2_2

New Line.l(r:udm3319-udm3321) Units=km Length=0.05063240000000001 bus1=udm3319.1.2 bus2=udm3321.1.2 switch=n enabled=y phases=2 Linecode=1P_OH_AL_4/0_Zuzara_0_416_0_2_2

New Line.l(r:udm3319-udt803lv) Units=km Length=0.0175092 bus1=udt803lv.1.2 bus2=udm3319.1.2 switch=n enabled=y phases=2 Linecode=1P_OH_AL_2/0_Rucina_0_416_0_2_2

New Line.l(r:p1ulv27223-udm3322) Units=km Length=0.0111054 bus1=udm3322.1.2 bus2=p1ulv27223.1.2 switch=n enabled=y phases=2 Linecode=1P_OH_AL_2/0_Rucina_0_416_0_2_2

New Line.l(r:p1ulv35452-udm3322) Units=km Length=0.0110453 bus1=udm3322.1.2 bus2=p1ulv35452.1.2 switch=n enabled=y phases=2 Linecode=1P_OH_AL_2/0_Rucina_0_416_0_2_2

New Line.l(r:udm3322-udt803lv) Units=km Length=0.0547498 bus1=udt803lv.1.2 bus2=udm3322.1.2 switch=n enabled=y phases=2 Linecode=1P_OH_AL_4/0_Zuzara_0_416_0_2_2

New Line.l(r:p1ulv1591-udm3327) Units=km Length=0.0235826 bus1=udm3327.1.2 bus2=p1ulv1591.1.2 switch=n enabled=y phases=2 Linecode=1P_OH_AL_2/0_Rucina_0_416_0_2_2

New Line.l(r:p1ulv28084-udm3327) Units=km Length=0.0185291 bus1=udm3327.1.2 bus2=p1ulv28084.1.2 switch=n enabled=y phases=2 Linecode=1P_OH_AL_2/0_Rucina_0_416_0_2_2

New Line.l(r:p1ulv37923-udm3327) Units=km Length=0.0174072 bus1=udm3327.1.2 bus2=p1ulv37923.1.2 switch=n enabled=y phases=2 Linecode=1P_OH_AL_2/0_Rucina_0_416_0_2_2

New Line.l(r:p1ulv27729-udm3329) Units=km Length=0.0165614 bus1=udm3329.1.2 bus2=p1ulv27729.1.2 switch=n enabled=y phases=2 Linecode=1P_OH_AL_2/0_Rucina_0_416_0_2_2

New Line.l(r:p1ulv37590-udm3329) Units=km Length=0.0193606 bus1=udm3329.1.2 bus2=p1ulv37590.1.2 switch=n enabled=y phases=2 Linecode=1P_OH_AL_2/0_Rucina_0_416_0_2_2

New Line.l(r:p1ulv50785-udm3336) Units=km Length=0.0200875 bus1=udm3336.1.2 bus2=p1ulv50785.1.2 switch=n enabled=y phases=2 Linecode=1P_OH_AL_2/0_Rucina_0_416_0_2_2

New Line.l(r:udm3329-udm3336) Units=km Length=0.0187442 bus1=udm3329.1.2 bus2=udm3336.1.2 switch=n enabled=y phases=2 Linecode=1P_OH_AL_2/0_Rucina_0_416_0_2_2

New Line.l(r:udm3327-udm3329) Units=km Length=0.0187442 bus1=udm3327.1.2 bus2=udm3329.1.2 switch=n enabled=y phases=2 Linecode=1P_OH_AL_2/0_Rucina_0_416_0_2_2

New Line.l(r:udm3327-udt804lv) Units=km Length=0.0187442 bus1=udt804lv.1.2 bus2=udm3327.1.2 switch=n enabled=y phases=2 Linecode=1P_OH_AL_2/0_Rucina_0_416_0_2_0_2

New Line.l(r:p1ulv1595-udm3328) Units=km Length=0.0180592 bus1=udm3328.1.2 bus2=p1ulv1595.1.2 switch=n enabled=y phases=2 Linecode=1P_OH_AL_2/0_Rucina_0_416_0_2_2

New Line.l(r:p1ulv32079-udm3328) Units=km Length=0.0237161 bus1=udm3328.1.2 bus2=p1ulv32079.1.2 switch=n enabled=y phases=2 Linecode=1P_OH_AL_2/0_Rucina_0_416_0_2_2

New Line.l(r:p1ulv38300-udm3328) Units=km Length=0.0165304 bus1=udm3328.1.2 bus2=p1ulv38300.1.2 switch=n enabled=y phases=2 Linecode=1P_OH_AL_2/0_Rucina_0_416_0_2_2

New Line.l(r:p1ulv45692-udm3335) Units=km Length=0.0197635 bus1=udm3335.1.2 bus2=p1ulv45692.1.2 switch=n enabled=y phases=2 Linecode=1P_OH_AL_2/0_Rucina_0_416_0_2_2

New Line.l(r:udm3328-udm3335) Units=km Length=0.0140567 bus1=udm3328.1.2 bus2=udm3335.1.2 switch=n enabled=y phases=2 Linecode=1P_OH_AL_2/0_Rucina_0_416_0_2_2

New Line.l(r:udm3328-udt804lv) Units=km Length=0.0140444 bus1=udt804lv.1.2 bus2=udm3328.1.2 switch=n enabled=y phases=2 Linecode=1P_OH_AL_2/0_Rucina_0_416_0_2_2

New Line.l(r:p1ulv1596-udt805lv) Units=km Length=0.0165509 bus1=udt805lv.1.2 bus2=p1ulv1596.1.2 switch=n enabled=y phases=2 Linecode=1P_OH_AL_2/0_Rucina_0_416_0_2_2

New Line.l(r:p1ulv30313-udt805lv) Units=km Length=0.0176702 bus1=udt805lv.1.2 bus2=p1ulv30313.1.2 switch=n enabled=y phases=2 Linecode=1P_OH_AL_2/0_Rucina_0_416_0_2_2

New Line.l(r:p1ulv31730-udt805lv) Units=km Length=0.0164451 bus1=udt805lv.1.2 bus2=p1ulv31730.1.2 switch=n enabled=y phases=2 Linecode=1P_OH_AL_2/0_Rucina_0_416_0_2_2

New Line.l(r:p1ulv1593-udm3337) Units=km Length=0.0152708 bus1=udm3337.1.2 bus2=p1ulv1593.1.2 switch=n enabled=y phases=2 Linecode=1P_OH_AL_2/0_Rucina_0_416_0_2_2

New Line.l(r:p1ulv26656-udm3337) Units=km Length=0.0173545 bus1=udm3337.1.2 bus2=p1ulv26656.1.2 switch=n enabled=y phases=2 Linecode=1P_OH_AL_2/0_Rucina_0_416_0_2_2

New Line.l(r:p1ulv33166-udm3337) Units=km Length=0.0178598 bus1=udm3337.1.2 bus2=p1ulv33166.1.2 switch=n enabled=y phases=2 Linecode=1P_OH_AL_2/0_Rucina_0_416_0_2_2

New Line.l(r:udm3337-udt805lv) Units=km Length=0.0198623 bus1=udt805lv.1.2 bus2=udm3337.1.2 switch=n enabled=y phases=2 Linecode=1P_OH_AL_2/0_Rucina_0_416_0_2_2

New Line.l(r:p1ulv28858-udm3340) Units=km Length=0.0159728 bus1=udm3340.1.2 bus2=p1ulv28858.1.2 switch=n enabled=y phases=2 Linecode=1P_OH_AL_2/0_Rucina_0_416_0_2_2

New Line.l(r:p1ulv37065-udm3340) Units=km Length=0.0173718 bus1=udm3340.1.2 bus2=p1ulv37065.1.2 switch=n enabled=y phases=2 Linecode=1P_OH_AL_2/0_Rucina_0_416_0_2_2

New Line.l(r:udm3340-udt805lv) Units=km Length=0.019851800000000003 bus1=udt805lv.1.2 bus2=udm3340.1.2 switch=n enabled=y phases=2 Linecode=1P_OH_AL_2/0_Rucina_0_416_0_2_2

New Line.l(r:p1ulv39248-udt806lv) Units=km Length=0.016100000000000003 bus1=udt806lv.1.2 bus2=p1ulv39248.1.2 switch=n enabled=y phases=2 Linecode=1P_OH_AL_2/0_Rucina_0_416_0_2_2

New Line.l(r:p1ulv47515-udt806lv) Units=km Length=0.0174445 bus1=udt806lv.1.2 bus2=p1ulv47515.1.2 switch=n enabled=y phases=2 Linecode=1P_OH_AL_2/0_Rucina_0_416_0_2_2

New Line.l(r:p1ulv1594-udm3345) Units=km Length=0.0152665 bus1=udm3345.1.2 bus2=p1ulv1594.1.2 switch=n enabled=y phases=2 Linecode=1P_OH_AL_2/0_Rucina_0_416_0_2_2

New Line.l(r:p1ulv43921-udm3345) Units=km Length=0.0153574 bus1=udm3345.1.2 bus2=p1ulv43921.1.2 switch=n enabled=y phases=2 Linecode=1P_OH_AL_2/0_Rucina_0_416_0_2_2

New Line.l(r:udm3345-udt806lv) Units=km Length=0.0188209 bus1=udt806lv.1.2 bus2=udm3345.1.2 switch=n enabled=y phases=2 Linecode=1P_OH_AL_2/0_Rucina_0_416_0_2_2

New Line.l(r:p1ulv1602-udm3357) Units=km Length=0.00967277 bus1=udm3357.1.2 bus2=p1ulv1602.1.2 switch=n enabled=y phases=2 Linecode=1P_OH_AL_2/0_Rucina_0_416_0_2_2

New Line.l(r:p1ulv26426-udm3357) Units=km Length=0.0122448 bus1=udm3357.1.2 bus2=p1ulv26426.1.2 switch=n enabled=y phases=2 Linecode=1P_OH_AL_2/0_Rucina_0_416_0_2_2

New Line.l(r:udm3357-udt808lv) Units=km Length=0.0373401 bus1=udt808lv.1.2 bus2=udm3357.1.2 switch=n enabled=y phases=2 Linecode=1P_OH_AL_4/0_Zuzara_0_416_0_2_2

New Line.l(r:p1ulv27870-udm3359) Units=km Length=0.0157812 bus1=udm3359.1.2 bus2=p1ulv27870.1.2 switch=n enabled=y phases=2 Linecode=1P_OH_AL_2/0_Rucina_0_416_0_2_2

New Line.l(r:p1ulv30463-udm3359) Units=km Length=0.014911000000000002 bus1=udm3359.1.2 bus2=p1ulv30463.1.2 switch=n enabled=y phases=2 Linecode=1P_OH_AL_2/0_Rucina_0_416_0_2_2

New Line.l(r:p1ulv33685-udm3359) Units=km Length=0.014298 bus1=udm3359.1.2 bus2=p1ulv33685.1.2 switch=n enabled=y phases=2 Linecode=1P_OH_AL_2/0_Rucina_0_416_0_2_2

New Line.l(r:p1ulv36152-udm3362) Units=km Length=0.0168845 bus1=udm3362.1.2 bus2=p1ulv36152.1.2 switch=n enabled=y phases=2 Linecode=1P_OH_AL_2/0_Rucina_0_416_0_2_2

New Line.l(r:udm3359-udm3362) Units=km Length=0.0185192 bus1=udm3359.1.2 bus2=udm3362.1.2 switch=n enabled=y phases=2 Linecode=1P_OH_AL_2/0_Rucina_0_416_0_2_2

New Line.l(r:udm3359-udt808lv) Units=km Length=0.0185292 bus1=udt808lv.1.2 bus2=udm3359.1.2 switch=n enabled=y phases=2 Linecode=1P_OH_AL_2/0_Rucina_0_416_0_2_2

New Line.l(r:p1ulv38080-udt811lv) Units=km Length=0.0137266 bus1=udt811lv.1.2 bus2=p1ulv38080.1.2 switch=n enabled=y phases=2 Linecode=1P_OH_AL_2/0_Rucina_0_416_0_2_2

New Line.l(r:p1ulv1605-udm3375) Units=km Length=0.0422976 bus1=udm3375.1.2 bus2=p1ulv1605.1.2 switch=n enabled=y phases=2 Linecode=1P_OH_AL_4/0_Zuzara_0_416_0_2_2

New Line.l(r:udm3375-udt811lv) Units=km Length=0.0165061 bus1=udt811lv.1.2 bus2=udm3375.1.2 switch=n enabled=y phases=2 Linecode=1P_OH_AL_2/0_Rucina_0_416_0_2_2

New Line.l(r:p1ulv39025-udm3378) Units=km Length=0.0102582 bus1=udm3378.1.2 bus2=p1ulv39025.1.2 switch=n enabled=y phases=2 Linecode=1P_OH_AL_2/0_Rucina_0_416_0_2_2

New Line.l(r:udm3378-udt811lv) Units=km Length=0.0303305 bus1=udt811lv.1.2 bus2=udm3378.1.2 switch=n enabled=y phases=2 Linecode=1P_OH_AL_4/0_Zuzara_0_416_0_2_2

New Line.l(r:p1ulv42636-udm3379) Units=km Length=0.0109329 bus1=udm3379.1.2 bus2=p1ulv42636.1.2 switch=n enabled=y phases=2 Linecode=1P_OH_AL_2/0_Rucina_0_416_0_2_2

New Line.l(r:p1ulv30242-udm3376) Units=km Length=0.0196176 bus1=udm3376.1.2 bus2=p1ulv30242.1.2 switch=n enabled=y phases=2 Linecode=1P_OH_AL_2/0_Rucina_0_416_0_2_2

New Line.l(r:udm3376-udm3379) Units=km Length=0.0172245 bus1=udm3379.1.2 bus2=udm3376.1.2 switch=n enabled=y phases=2 Linecode=1P_OH_AL_2/0_Rucina_0_416_0_2_2

New Line.l(r:udm3379-udt811lv) Units=km Length=0.015859 bus1=udt811lv.1.2 bus2=udm3379.1.2 switch=n enabled=y phases=2 Linecode=1P_OH_AL_2/0_Rucina_0_416_0_2_2

New Line.l(r:p1ulv1608-udt814lv) Units=km Length=0.0211796 bus1=udt814lv.1.2 bus2=p1ulv1608.1.2 switch=n enabled=y phases=2 Linecode=1P_OH_AL_2/0_Rucina_0_416_0_2_2

New Line.l(r:p1ulv32235-udt816lv) Units=km Length=0.0145728 bus1=udt816lv.1.2 bus2=p1ulv32235.1.2 switch=n enabled=y phases=2 Linecode=1P_OH_AL_2/0_Rucina_0_416_0_2_2

New Line.l(r:p1ulv1610-udm3400) Units=km Length=0.0112202 bus1=udm3400.1.2 bus2=p1ulv1610.1.2 switch=n enabled=y phases=2 Linecode=1P_UG_AL_1/0_Brenau_0_416_0_2_2

New Line.l(r:p1ulv31524-udm3400) Units=km Length=0.0151774 bus1=udm3400.1.2 bus2=p1ulv31524.1.2 switch=n enabled=y phases=2 Linecode=1P_UG_AL_1/0_Brenau_0_416_0_2_2

New Line.l(r:udm3400-udt816lv) Units=km Length=0.0771852 bus1=udt816lv.1.2 bus2=udm3400.1.2 switch=n enabled=y phases=2 Linecode=1P_OH_AL_4/0_Zuzara_0_416_0_2_2

New Line.l(r:p1ulv30461-udm3401) Units=km Length=0.0163526 bus1=udm3401.1.2 bus2=p1ulv30461.1.2 switch=n enabled=y phases=2 Linecode=1P_OH_AL_2/0_Rucina_0_416_0_2_2

New Line.l(r:udm3401-udt816lv) Units=km Length=0.013346 bus1=udt816lv.1.2 bus2=udm3401.1.2 switch=n enabled=y phases=2 Linecode=1P_OH_AL_2/0_Rucina_0_416_0_2_2

New Line.l(r:p1ulv1623-udt817lv) Units=km Length=0.0111438 bus1=udt817lv.1.2 bus2=p1ulv1623.1.2 switch=n enabled=y phases=2 Linecode=1P_OH_AL_2/0_Rucina_0_416_0_2_2

New Line.l(r:p1ulv36092-udt817lv) Units=km Length=0.0118595 bus1=udt817lv.1.2 bus2=p1ulv36092.1.2 switch=n enabled=y phases=2 Linecode=1P_OH_AL_2/0_Rucina_0_416_0_2_2

New Line.l(r:p1ulv42782-udt817lv) Units=km Length=0.018579 bus1=udt817lv.1.2 bus2=p1ulv42782.1.2 switch=n enabled=y phases=2 Linecode=1P_OH_AL_2/0_Rucina_0_416_0_2_2

New Line.l(r:p1ulv1612-udm3404) Units=km Length=0.0197014 bus1=udm3404.1.2 bus2=p1ulv1612.1.2 switch=n enabled=y phases=2 Linecode=1P_OH_AL_2/0_Rucina_0_416_0_2_2

New Line.l(r:p1ulv1619-udm3405) Units=km Length=0.0199988 bus1=udm3405.1.2 bus2=p1ulv1619.1.2 switch=n enabled=y phases=2 Linecode=1P_OH_AL_2/0_Rucina_0_416_0_2_2

New Line.l(r:p1ulv1629-udm3405) Units=km Length=0.0139095 bus1=udm3405.1.2 bus2=p1ulv1629.1.2 switch=n enabled=y phases=2 Linecode=1P_OH_AL_2/0_Rucina_0_416_0_2_2

New Line.l(r:udm3404-udm3405) Units=km Length=0.0179087 bus1=udm3404.1.2 bus2=udm3405.1.2 switch=n enabled=y phases=2 Linecode=1P_OH_AL_2/0_Rucina_0_416_0_2_2

New Line.l(r:udm3404-udt817lv) Units=km Length=0.0178995 bus1=udt817lv.1.2 bus2=udm3404.1.2 switch=n enabled=y phases=2 Linecode=1P_OH_AL_2/0_Rucina_0_416_0_2_2

New Line.l(r:p1ulv30027-udm3408) Units=km Length=0.0171841 bus1=udm3408.1.2 bus2=p1ulv30027.1.2 switch=n enabled=y phases=2 Linecode=1P_OH_AL_2/0_Rucina_0_416_0_2_2

New Line.l(r:udm3408-udt817lv) Units=km Length=0.0526327 bus1=udt817lv.1.2 bus2=udm3408.1.2 switch=n enabled=y phases=2 Linecode=1P_OH_AL_4/0_Zuzara_0_416_0_2_2

New Line.l(r:p1ulv1616-udm3414) Units=km Length=0.0204955 bus1=udm3414.1.2 bus2=p1ulv1616.1.2 switch=n enabled=y phases=2 Linecode=1P_OH_AL_2/0_Rucina_0_416_0_2_2

New Line.l(r:udm3414-udt819lv) Units=km Length=0.0396435 bus1=udt819lv.1.2 bus2=udm3414.1.2 switch=n enabled=y phases=2 Linecode=1P_OH_AL_4/0_Zuzara_0_416_0_2_2

New Line.l(r:p1ulv42461-udm3415) Units=km Length=0.0155038 bus1=udm3415.1.2 bus2=p1ulv42461.1.2 switch=n enabled=y phases=2 Linecode=1P_OH_AL_2/0_Rucina_0_416_0_2_2

New Line.l(r:udm3415-udt819lv) Units=km Length=0.0449949 bus1=udt819lv.1.2 bus2=udm3415.1.2 switch=n enabled=y phases=2 Linecode=1P_OH_AL_4/0_Zuzara_0_416_0_2_2

New Line.l(r:p1ulv1620-udm3422) Units=km Length=0.010314 bus1=udm3422.1.2 bus2=p1ulv1620.1.2 switch=n enabled=y phases=2 Linecode=1P_UG_AL_1/0_Brenau_0_416_0_2_2

New Line.l(r:p1ulv30634-udm3422) Units=km Length=0.0121174 bus1=udm3422.1.2 bus2=p1ulv30634.1.2 switch=n enabled=y phases=2 Linecode=1P_UG_AL_1/0_Brenau_0_416_0_2_2

New Line.l(r:udm3422-udt822lv) Units=km Length=0.00864005 bus1=udt822lv.1.2 bus2=udm3422.1.2 switch=n enabled=y phases=2 Linecode=1P_UG_AL_4/0_Sweetbriar_0_416_0_2_2

New Line.l(r:p1ulv32877-udm3425) Units=km Length=0.0119044 bus1=udm3425.1.2 bus2=p1ulv32877.1.2 switch=n enabled=y phases=2 Linecode=1P_UG_AL_1/0_Brenau_0_416_0_2_2

New Line.l(r:p1ulv47472-udm3425) Units=km Length=0.00995514 bus1=udm3425.1.2 bus2=p1ulv47472.1.2 switch=n enabled=y phases=2 Linecode=1P_UG_AL_1/0_Brenau_0_416_0_2_2

New Line.l(r:p1ulv26010-udm3423) Units=km Length=0.00907375 bus1=udm3423.1.2 bus2=p1ulv26010.1.2 switch=n enabled=y phases=2 Linecode=1P_UG_AL_1/0_Brenau_0_416_0_2_2

New Line.l(r:udm3423-udm3425) Units=km Length=0.00945307 bus1=udm3425.1.2 bus2=udm3423.1.2 switch=n enabled=y phases=2 Linecode=1P_UG_AL_1/0_Brenau_0_416_0_2_2

New Line.l(r:udm3425-udt822lv) Units=km Length=0.00945377 bus1=udt822lv.1.2 bus2=udm3425.1.2 switch=n enabled=y phases=2 Linecode=1P_UG_AL_4/0_Sweetbriar_0_416_0_2_2

New Line.l(r:p1ulv1621-udt823lv) Units=km Length=0.0014632200000000003 bus1=udt823lv.1.2 bus2=p1ulv1621.1.2 switch=n enabled=y phases=2 Linecode=1P_UG_AL_1/0_Brenau_0_416_0_2_2

New Line.l(r:p1ulv29033-udm3428) Units=km Length=0.00448612 bus1=udm3428.1.2 bus2=p1ulv29033.1.2 switch=n enabled=y phases=2 Linecode=1P_UG_AL_1/0_Brenau_0_416_0_2_2

New Line.l(r:udm3428-udt823lv) Units=km Length=0.00973526 bus1=udt823lv.1.2 bus2=udm3428.1.2 switch=n enabled=y phases=2 Linecode=1P_UG_AL_1/0_Brenau_0_416_0_2_2

New Line.l(r:p1ulv35450-udm3429) Units=km Length=0.0129545 bus1=udm3429.1.2 bus2=p1ulv35450.1.2 switch=n enabled=y phases=2 Linecode=1P_UG_AL_1/0_Brenau_0_416_0_2_2

New Line.l(r:udm3429-udt823lv) Units=km Length=0.0194788 bus1=udt823lv.1.2 bus2=udm3429.1.2 switch=n enabled=y phases=2 Linecode=1P_UG_AL_1/0_Brenau_0_416_0_2_2

New Line.l(r:p1ulv1625-udt826lv) Units=km Length=0.0134586 bus1=udt826lv.1.2 bus2=p1ulv1625.1.2 switch=n enabled=y phases=2 Linecode=1P_OH_AL_2/0_Rucina_0_416_0_2_2

New Line.l(r:p1ulv31614-udm3437) Units=km Length=0.0266668 bus1=udm3437.1.2 bus2=p1ulv31614.1.2 switch=n enabled=y phases=2 Linecode=1P_OH_AL_2/0_Rucina_0_416_0_2_2

New Line.l(r:udm3437-udt826lv) Units=km Length=0.0396515 bus1=udt826lv.1.2 bus2=udm3437.1.2 switch=n enabled=y phases=2 Linecode=1P_OH_AL_4/0_Zuzara_0_416_0_2_2

New Line.l(r:p1ulv35588-udm3438) Units=km Length=0.0152489 bus1=udm3438.1.2 bus2=p1ulv35588.1.2 switch=n enabled=y phases=2 Linecode=1P_OH_AL_2/0_Rucina_0_416_0_2_2

New Line.l(r:udm3438-udt826lv) Units=km Length=0.0166914 bus1=udt826lv.1.2 bus2=udm3438.1.2 switch=n enabled=y phases=2 Linecode=1P_OH_AL_2/0_Rucina_0_416_0_2_2

New Line.l(r:p1ulv40987-udt827lv) Units=km Length=0.0127884 bus1=udt827lv.1.2 bus2=p1ulv40987.1.2 switch=n enabled=y phases=2 Linecode=1P_UG_AL_1/0_Brenau_0_416_0_2_2

New Line.l(r:p1ulv1635-udm3440) Units=km Length=0.0150487 bus1=udm3440.1.2 bus2=p1ulv1635.1.2 switch=n enabled=y phases=2 Linecode=1P_UG_AL_1/0_Brenau_0_416_0_2_2

New Line.l(r:p1ulv27388-udm3440) Units=km Length=0.012558 bus1=udm3440.1.2 bus2=p1ulv27388.1.2 switch=n enabled=y phases=2 Linecode=1P_UG_AL_1/0_Brenau_0_416_0_2_2

New Line.l(r:p1ulv1626-udm3439) Units=km Length=0.015187 bus1=udm3439.1.2 bus2=p1ulv1626.1.2 switch=n enabled=y phases=2 Linecode=1P_UG_AL_1/0_Brenau_0_416_0_2_2

New Line.l(r:udm3439-udm3440) Units=km Length=0.00913534 bus1=udm3440.1.2 bus2=udm3439.1.2 switch=n enabled=y phases=2 Linecode=1P_UG_AL_1/0_Brenau_0_416_0_2_2

New Line.l(r:udm3440-udt827lv) Units=km Length=0.00912537 bus1=udt827lv.1.2 bus2=udm3440.1.2 switch=n enabled=y phases=2 Linecode=1P_UG_AL_2/0_Converse_0_416_0_2_2

New Line.l(r:p1ulv31454-udm3442) Units=km Length=0.013299 bus1=udm3442.1.2 bus2=p1ulv31454.1.2 switch=n enabled=y phases=2 Linecode=1P_UG_AL_1/0_Brenau_0_416_0_2_2

New Line.l(r:p1ulv33254-udm3444) Units=km Length=0.0153933 bus1=udm3444.1.2 bus2=p1ulv33254.1.2 switch=n enabled=y phases=2 Linecode=1P_UG_AL_1/0_Brenau_0_416_0_2_2

New Line.l(r:p1ulv32170-udm3443) Units=km Length=0.0146319 bus1=udm3443.1.2 bus2=p1ulv32170.1.2 switch=n enabled=y phases=2 Linecode=1P_UG_AL_1/0_Brenau_0_416_0_2_2

New Line.l(r:udm3443-udm3444) Units=km Length=0.00955061 bus1=udm3444.1.2 bus2=udm3443.1.2 switch=n enabled=y phases=2 Linecode=1P_UG_AL_1/0_Brenau_0_416_0_2_2

New Line.l(r:udm3442-udm3444) Units=km Length=0.00955061 bus1=udm3442.1.2 bus2=udm3444.1.2 switch=n enabled=y phases=2 Linecode=1P_UG_AL_1/0_Brenau_0_416_0_2_2

New Line.l(r:udm3442-udt827lv) Units=km Length=0.0095606 bus1=udt827lv.1.2 bus2=udm3442.1.2 switch=n enabled=y phases=2 Linecode=1P_UG_AL_2/0_Converse_0_416_0_2_2

New Line.l(r:p1ulv1630-udt830lv) Units=km Length=0.0122932 bus1=udt830lv.1.2 bus2=p1ulv1630.1.2 switch=n enabled=y phases=2 Linecode=1P_OH_AL_2/0_Rucina_0_416_0_2_2

New Line.l(r:p1ulv40812-udt830lv) Units=km Length=0.018746 bus1=udt830lv.1.2 bus2=p1ulv40812.1.2 switch=n enabled=y phases=2 Linecode=1P_OH_AL_2/0_Rucina_0_416_0_2_2

New Line.l(r:p1ulv42258-udt830lv) Units=km Length=0.0183184 bus1=udt830lv.1.2 bus2=p1ulv42258.1.2 switch=n enabled=y phases=2 Linecode=1P_OH_AL_2/0_Rucina_0_416_0_2_2

New Line.l(r:p1ulv31310-udm3456) Units=km Length=0.01844 bus1=udm3456.1.2 bus2=p1ulv31310.1.2 switch=n enabled=y phases=2 Linecode=1P_OH_AL_2/0_Rucina_0_416_0_2_2

New Line.l(r:p1ulv37516-udm3456) Units=km Length=0.0133542 bus1=udm3456.1.2 bus2=p1ulv37516.1.2 switch=n enabled=y phases=2 Linecode=1P_OH_AL_2/0_Rucina_0_416_0_2_2

New Line.l(r:udm3456-udt830lv) Units=km Length=0.0178995 bus1=udt830lv.1.2 bus2=udm3456.1.2 switch=n enabled=y phases=2 Linecode=1P_OH_AL_2/0_Rucina_0_416_0_2_2

New Line.l(r:p1ulv48740-udm3460) Units=km Length=0.0266595 bus1=udm3460.1.2 bus2=p1ulv48740.1.2 switch=n enabled=y phases=2 Linecode=1P_OH_AL_2/0_Rucina_0_416_0_2_2

New Line.l(r:udm3460-udt830lv) Units=km Length=0.0179087 bus1=udt830lv.1.2 bus2=udm3460.1.2 switch=n enabled=y phases=2 Linecode=1P_OH_AL_2/0_Rucina_0_416_0_2_2

New Line.l(r:p1ulv48929-udt832lv) Units=km Length=0.0114151 bus1=udt832lv.1.2 bus2=p1ulv48929.1.2 switch=n enabled=y phases=2 Linecode=1P_UG_AL_1/0_Brenau_0_416_0_2_2

New Line.l(r:p1ulv50525-udt832lv) Units=km Length=0.00979251 bus1=udt832lv.1.2 bus2=p1ulv50525.1.2 switch=n enabled=y phases=2 Linecode=1P_UG_AL_1/0_Brenau_0_416_0_2_2

New Line.l(r:p1ulv33835-udm3473) Units=km Length=0.00875206 bus1=udm3473.1.2 bus2=p1ulv33835.1.2 switch=n enabled=y phases=2 Linecode=1P_UG_AL_1/0_Brenau_0_416_0_2_2

New Line.l(r:p1ulv1632-udm3471) Units=km Length=0.012646 bus1=udm3471.1.2 bus2=p1ulv1632.1.2 switch=n enabled=y phases=2 Linecode=1P_UG_AL_1/0_Brenau_0_416_0_2_2

New Line.l(r:p1ulv31674-udm3472) Units=km Length=0.0115561 bus1=udm3472.1.2 bus2=p1ulv31674.1.2 switch=n enabled=y phases=2 Linecode=1P_UG_AL_1/0_Brenau_0_416_0_2_2

New Line.l(r:udm3471-udm3472) Units=km Length=0.00981774 bus1=udm3471.1.2 bus2=udm3472.1.2 switch=n enabled=y phases=2 Linecode=1P_UG_AL_1/0_Brenau_0_416_0_2_2

New Line.l(r:udm3471-udm3473) Units=km Length=0.00980691 bus1=udm3473.1.2 bus2=udm3471.1.2 switch=n enabled=y phases=2 Linecode=1P_UG_AL_2/0_Converse_0_416_0_2_2
