New Line.l(r:p1ulv2606-udt1182lv) Units=km Length=0.0177571 bus1=udt1182lv.1.2 bus2=p1ulv2606.1.2 switch=n enabled=y phases=2 Linecode=1P_OH_AL_2/0_Rucina_0_416_0_2_2

New Line.l(r:p1ulv59970-udt1182lv) Units=km Length=0.0155156 bus1=udt1182lv.1.2 bus2=p1ulv59970.1.2 switch=n enabled=y phases=2 Linecode=1P_OH_AL_2/0_Rucina_0_416_0_2_2

New Line.l(r:p1ulv51736-udm4926) Units=km Length=0.0171956 bus1=udm4926.1.2 bus2=p1ulv51736.1.2 switch=n enabled=y phases=2 Linecode=1P_OH_AL_2/0_Rucina_0_416_0_2_2

New Line.l(r:p1ulv57475-udm4926) Units=km Length=0.0178982 bus1=udm4926.1.2 bus2=p1ulv57475.1.2 switch=n enabled=y phases=2 Linecode=1P_OH_AL_2/0_Rucina_0_416_0_2_2

New Line.l(r:udm4926-udt1182lv) Units=km Length=0.0187027 bus1=udt1182lv.1.2 bus2=udm4926.1.2 switch=n enabled=y phases=2 Linecode=1P_OH_AL_2/0_Rucina_0_416_0_2_2

New Line.l(r:p1ulv56884-udm4927) Units=km Length=0.0165626 bus1=udm4927.1.2 bus2=p1ulv56884.1.2 switch=n enabled=y phases=2 Linecode=1P_OH_AL_2/0_Rucina_0_416_0_2_2

New Line.l(r:p1ulv59386-udm4927) Units=km Length=0.0183321 bus1=udm4927.1.2 bus2=p1ulv59386.1.2 switch=n enabled=y phases=2 Linecode=1P_OH_AL_2/0_Rucina_0_416_0_2_2

New Line.l(r:p1ulv43366-udm4925) Units=km Length=0.01622 bus1=udm4925.1.2 bus2=p1ulv43366.1.2 switch=n enabled=y phases=2 Linecode=1P_OH_AL_2/0_Rucina_0_416_0_2_2

New Line.l(r:p1ulv57751-udm4929) Units=km Length=0.0183954 bus1=udm4929.1.2 bus2=p1ulv57751.1.2 switch=n enabled=y phases=2 Linecode=1P_OH_AL_2/0_Rucina_0_416_0_2_2

New Line.l(r:udm4925-udm4929) Units=km Length=0.0116784 bus1=udm4925.1.2 bus2=udm4929.1.2 switch=n enabled=y phases=2 Linecode=1P_OH_AL_2/0_Rucina_0_416_0_2_2

New Line.l(r:udm4925-udm4927) Units=km Length=0.0116784 bus1=udm4927.1.2 bus2=udm4925.1.2 switch=n enabled=y phases=2 Linecode=1P_OH_AL_2/0_Rucina_0_416_0_2_2

New Line.l(r:udm4927-udt1182lv) Units=km Length=0.0187117 bus1=udt1182lv.1.2 bus2=udm4927.1.2 switch=n enabled=y phases=2 Linecode=1P_OH_AL_2/0_Rucina_0_416_0_2_2

New Line.l(r:p1ulv2607-udt1183lv) Units=km Length=0.0727992 bus1=udt1183lv.1.2 bus2=p1ulv2607.1.2 switch=n enabled=y phases=2 Linecode=1P_OH_AL_4/0_Zuzara_0_416_0_2_2

New Line.l(r:p1ulv2608-udt1184lv) Units=km Length=0.0157317 bus1=udt1184lv.1.2 bus2=p1ulv2608.1.2 switch=n enabled=y phases=2 Linecode=1P_OH_AL_2/0_Rucina_0_416_0_2_2

New Line.l(r:p1ulv55558-udt1184lv) Units=km Length=0.0177847 bus1=udt1184lv.1.2 bus2=p1ulv55558.1.2 switch=n enabled=y phases=2 Linecode=1P_OH_AL_2/0_Rucina_0_416_0_2_2

New Line.l(r:p1ulv39787-udm4934) Units=km Length=0.0149905 bus1=udm4934.1.2 bus2=p1ulv39787.1.2 switch=n enabled=y phases=2 Linecode=1P_OH_AL_2/0_Rucina_0_416_0_2_2

New Line.l(r:p1ulv43061-udm4935) Units=km Length=0.0163078 bus1=udm4935.1.2 bus2=p1ulv43061.1.2 switch=n enabled=y phases=2 Linecode=1P_OH_AL_2/0_Rucina_0_416_0_2_2

New Line.l(r:udm4934-udm4935) Units=km Length=0.022917900000000005 bus1=udm4934.1.2 bus2=udm4935.1.2 switch=n enabled=y phases=2 Linecode=1P_OH_AL_2/0_Rucina_0_416_0_2_2

New Line.l(r:udm4934-udt1184lv) Units=km Length=0.0183823 bus1=udt1184lv.1.2 bus2=udm4934.1.2 switch=n enabled=y phases=2 Linecode=1P_OH_AL_2/0_Rucina_0_416_0_2_2

New Line.l(r:p1ulv53188-udm4936) Units=km Length=0.0171454 bus1=udm4936.1.2 bus2=p1ulv53188.1.2 switch=n enabled=y phases=2 Linecode=1P_OH_AL_2/0_Rucina_0_416_0_2_2

New Line.l(r:p1ulv61094-udm4936) Units=km Length=0.015381 bus1=udm4936.1.2 bus2=p1ulv61094.1.2 switch=n enabled=y phases=2 Linecode=1P_OH_AL_2/0_Rucina_0_416_0_2_2

New Line.l(r:p1ulv56318-udm4938) Units=km Length=0.0143963 bus1=udm4938.1.2 bus2=p1ulv56318.1.2 switch=n enabled=y phases=2 Linecode=1P_OH_AL_2/0_Rucina_0_416_0_2_2

New Line.l(r:p1ulv58049-udm4938) Units=km Length=0.0187613 bus1=udm4938.1.2 bus2=p1ulv58049.1.2 switch=n enabled=y phases=2 Linecode=1P_OH_AL_2/0_Rucina_0_416_0_2_2

New Line.l(r:udm4936-udm4938) Units=km Length=0.0142881 bus1=udm4936.1.2 bus2=udm4938.1.2 switch=n enabled=y phases=2 Linecode=1P_OH_AL_2/0_Rucina_0_416_0_2_2

New Line.l(r:udm4936-udt1184lv) Units=km Length=0.0183821 bus1=udt1184lv.1.2 bus2=udm4936.1.2 switch=n enabled=y phases=2 Linecode=1P_OH_AL_2/0_Rucina_0_416_0_2_2

New Line.l(r:p1ulv2609-udt1185lv) Units=km Length=0.0638744 bus1=udt1185lv.1.2 bus2=p1ulv2609.1.2 switch=n enabled=y phases=2 Linecode=1P_OH_AL_4/0_Zuzara_0_416_0_2_2

New Line.l(r:p1ulv56204-udt1185lv) Units=km Length=0.0885624 bus1=udt1185lv.1.2 bus2=p1ulv56204.1.2 switch=n enabled=y phases=2 Linecode=1P_OH_AL_4/0_Zuzara_0_416_0_2_2

New Line.l(r:p1ulv54196-udm4942) Units=km Length=0.0150897 bus1=udm4942.1.2 bus2=p1ulv54196.1.2 switch=n enabled=y phases=2 Linecode=1P_OH_AL_2/0_Rucina_0_416_0_2_2

New Line.l(r:udm4942-udt1185lv) Units=km Length=0.0117602 bus1=udt1185lv.1.2 bus2=udm4942.1.2 switch=n enabled=y phases=2 Linecode=1P_OH_AL_2/0_Rucina_0_416_0_2_2

New Line.l(r:p1ulv2726-udt1243lv) Units=km Length=0.0686637 bus1=udt1243lv.1.2 bus2=p1ulv2726.1.2 switch=n enabled=y phases=2 Linecode=1P_OH_AL_4/0_Zuzara_0_416_0_2_2

New Line.l(r:p1ulv51105-udt1243lv) Units=km Length=0.0322126 bus1=udt1243lv.1.2 bus2=p1ulv51105.1.2 switch=n enabled=y phases=2 Linecode=1P_OH_AL_4/0_Zuzara_0_416_0_2_2

New Line.l(r:p1ulv57920-udm5171) Units=km Length=0.07137900000000001 bus1=udm5171.1.2 bus2=p1ulv57920.1.2 switch=n enabled=y phases=2 Linecode=1P_OH_AL_4/0_Zuzara_0_416_0_2_2

New Line.l(r:udm5171-udt1243lv) Units=km Length=0.0388542 bus1=udt1243lv.1.2 bus2=udm5171.1.2 switch=n enabled=y phases=2 Linecode=1P_OH_AL_4/0_Zuzara_0_416_0_2_2

New Line.l(r:p1ulv59449-udt1244lv) Units=km Length=0.0270541 bus1=udt1244lv.1.2 bus2=p1ulv59449.1.2 switch=n enabled=y phases=2 Linecode=1P_OH_AL_4/0_Zuzara_0_416_0_2_2

New Line.l(r:p1ulv2727-udm5172) Units=km Length=0.0277397 bus1=udm5172.1.2 bus2=p1ulv2727.1.2 switch=n enabled=y phases=2 Linecode=1P_OH_AL_4/0_Zuzara_0_416_0_2_2

New Line.l(r:udm5172-udt1244lv) Units=km Length=0.0388639 bus1=udt1244lv.1.2 bus2=udm5172.1.2 switch=n enabled=y phases=2 Linecode=1P_OH_AL_4/0_Zuzara_0_416_0_2_2

New Line.l(r:p1ulv52584-udm5173) Units=km Length=0.0281234 bus1=udm5173.1.2 bus2=p1ulv52584.1.2 switch=n enabled=y phases=2 Linecode=1P_OH_AL_4/0_Zuzara_0_416_0_2_2

New Line.l(r:udm5173-udt1244lv) Units=km Length=0.0194223 bus1=udt1244lv.1.2 bus2=udm5173.1.2 switch=n enabled=y phases=2 Linecode=1P_OH_AL_2/0_Rucina_0_416_0_2_2

New Line.l(r:p1ulv2728-udt1245lv) Units=km Length=0.023395 bus1=udt1245lv.1.2 bus2=p1ulv2728.1.2 switch=n enabled=y phases=2 Linecode=1P_OH_AL_2/0_Rucina_0_416_0_2_2

New Line.l(r:p1ulv2732-udm5176) Units=km Length=0.0193696 bus1=udm5176.1.2 bus2=p1ulv2732.1.2 switch=n enabled=y phases=2 Linecode=1P_OH_AL_2/0_Rucina_0_416_0_2_2

New Line.l(r:udm5176-udt1245lv) Units=km Length=0.019432 bus1=udt1245lv.1.2 bus2=udm5176.1.2 switch=n enabled=y phases=2 Linecode=1P_OH_AL_2/0_Rucina_0_416_0_2_2

New Line.l(r:p1ulv54973-udm5177) Units=km Length=0.0277653 bus1=udm5177.1.2 bus2=p1ulv54973.1.2 switch=n enabled=y phases=2 Linecode=1P_OH_AL_4/0_Zuzara_0_416_0_2_2

New Line.l(r:udm5177-udt1245lv) Units=km Length=0.017954600000000005 bus1=udt1245lv.1.2 bus2=udm5177.1.2 switch=n enabled=y phases=2 Linecode=1P_OH_AL_2/0_Rucina_0_416_0_2_2

New Line.l(r:p1ulv2729-udm5178) Units=km Length=0.026983200000000002 bus1=udm5178.1.2 bus2=p1ulv2729.1.2 switch=n enabled=y phases=2 Linecode=1P_OH_AL_2/0_Rucina_0_416_0_2_2

New Line.l(r:p1ulv55966-udm5180) Units=km Length=0.0278047 bus1=udm5180.1.2 bus2=p1ulv55966.1.2 switch=n enabled=y phases=2 Linecode=1P_OH_AL_4/0_Zuzara_0_416_0_2_2

New Line.l(r:udm5178-udm5180) Units=km Length=0.039043 bus1=udm5178.1.2 bus2=udm5180.1.2 switch=n enabled=y phases=2 Linecode=1P_OH_AL_4/0_Zuzara_0_416_0_2_2

New Line.l(r:udm5178-udt1246lv) Units=km Length=0.0358928 bus1=udt1246lv.1.2 bus2=udm5178.1.2 switch=n enabled=y phases=2 Linecode=1P_OH_AL_4/0_Zuzara_0_416_0_2_2

New Line.l(r:p1ulv58164-udm5181) Units=km Length=0.0220113 bus1=udm5181.1.2 bus2=p1ulv58164.1.2 switch=n enabled=y phases=2 Linecode=1P_UG_AL_1/0_Brenau_0_416_0_2_2

New Line.l(r:p1ulv2730-udm5179) Units=km Length=0.016172000000000002 bus1=udm5179.1.2 bus2=p1ulv2730.1.2 switch=n enabled=y phases=2 Linecode=1P_UG_AL_1/0_Brenau_0_416_0_2_2

New Line.l(r:p1ulv59044-udm5179) Units=km Length=0.0212394 bus1=udm5179.1.2 bus2=p1ulv59044.1.2 switch=n enabled=y phases=2 Linecode=1P_UG_AL_1/0_Brenau_0_416_0_2_2

New Line.l(r:udm5179-udm5181) Units=km Length=0.009950720000000001 bus1=udm5181.1.2 bus2=udm5179.1.2 switch=n enabled=y phases=2 Linecode=1P_UG_AL_1/0_Brenau_0_416_0_2_2

New Line.l(r:udm5181-udt1246lv) Units=km Length=0.0179415 bus1=udt1246lv.1.2 bus2=udm5181.1.2 switch=n enabled=y phases=2 Linecode=1P_OH_AL_2/0_Rucina_0_416_0_2_2

New Line.l(r:p1ulv2731-udm5183) Units=km Length=0.0382359 bus1=udm5183.1.2 bus2=p1ulv2731.1.2 switch=n enabled=y phases=2 Linecode=1P_UG_AL_1/0_Brenau_0_416_0_2_2

New Line.l(r:udm5183-udt1247lv) Units=km Length=0.0168573 bus1=udt1247lv.1.2 bus2=udm5183.1.2 switch=n enabled=y phases=2 Linecode=1P_OH_AL_2/0_Rucina_0_416_0_2_2

New Line.l(r:p1ulv46542-udm5184) Units=km Length=0.0341205 bus1=udm5184.1.2 bus2=p1ulv46542.1.2 switch=n enabled=y phases=2 Linecode=1P_OH_AL_4/0_Zuzara_0_416_0_2_2

New Line.l(r:udm5184-udt1247lv) Units=km Length=0.0153509 bus1=udt1247lv.1.2 bus2=udm5184.1.2 switch=n enabled=y phases=2 Linecode=1P_OH_AL_2/0_Rucina_0_416_0_2_2

New Line.l(r:p1ulv2733-udm5185) Units=km Length=0.0302147 bus1=udm5185.1.2 bus2=p1ulv2733.1.2 switch=n enabled=y phases=2 Linecode=1P_UG_AL_1/0_Brenau_0_416_0_2_2

New Line.l(r:udm5185-udt1248lv) Units=km Length=0.009454870000000002 bus1=udt1248lv.1.2 bus2=udm5185.1.2 switch=n enabled=y phases=2 Linecode=1P_UG_AL_1/0_Brenau_0_416_0_2_2

New Line.l(r:p1ulv2735-udm5186) Units=km Length=0.0177388 bus1=udm5186.1.2 bus2=p1ulv2735.1.2 switch=n enabled=y phases=2 Linecode=1P_UG_AL_1/0_Brenau_0_416_0_2_2

New Line.l(r:udm5186-udt1248lv) Units=km Length=0.018910300000000005 bus1=udt1248lv.1.2 bus2=udm5186.1.2 switch=n enabled=y phases=2 Linecode=1P_UG_AL_1/0_Brenau_0_416_0_2_2

New Line.l(r:p1ulv2734-udt1249lv) Units=km Length=0.0207415 bus1=udt1249lv.1.2 bus2=p1ulv2734.1.2 switch=n enabled=y phases=2 Linecode=1P_UG_AL_1/0_Brenau_0_416_0_2_2

New Line.l(r:p1ulv53595-udm5188) Units=km Length=0.0243816 bus1=udm5188.1.2 bus2=p1ulv53595.1.2 switch=n enabled=y phases=2 Linecode=1P_UG_AL_1/0_Brenau_0_416_0_2_2

New Line.l(r:udm5188-udt1249lv) Units=km Length=0.0398031 bus1=udt1249lv.1.2 bus2=udm5188.1.2 switch=n enabled=y phases=2 Linecode=1P_UG_AL_1/0_Brenau_0_416_0_2_2

New Line.l(r:p1ulv56832-udm5189) Units=km Length=0.0202531 bus1=udm5189.1.2 bus2=p1ulv56832.1.2 switch=n enabled=y phases=2 Linecode=1P_UG_AL_1/0_Brenau_0_416_0_2_2

New Line.l(r:udm5189-udt1249lv) Units=km Length=0.0398131 bus1=udt1249lv.1.2 bus2=udm5189.1.2 switch=n enabled=y phases=2 Linecode=1P_UG_AL_1/0_Brenau_0_416_0_2_2

New Line.l(r:p1ulv2736-udm5190) Units=km Length=0.028453 bus1=udm5190.1.2 bus2=p1ulv2736.1.2 switch=n enabled=y phases=2 Linecode=1P_UG_AL_1/0_Brenau_0_416_0_2_2

New Line.l(r:udm5190-udt1250lv) Units=km Length=0.009454870000000002 bus1=udt1250lv.1.2 bus2=udm5190.1.2 switch=n enabled=y phases=2 Linecode=1P_UG_AL_1/0_Brenau_0_416_0_2_2

New Line.l(r:p1ulv59616-udm5191) Units=km Length=0.0292222 bus1=udm5191.1.2 bus2=p1ulv59616.1.2 switch=n enabled=y phases=2 Linecode=1P_UG_AL_1/0_Brenau_0_416_0_2_2

New Line.l(r:udm5191-udt1250lv) Units=km Length=0.018910300000000005 bus1=udt1250lv.1.2 bus2=udm5191.1.2 switch=n enabled=y phases=2 Linecode=1P_UG_AL_1/0_Brenau_0_416_0_2_2

New Line.l(r:p1ulv50024-udt1252lv) Units=km Length=0.0213411 bus1=udt1252lv.1.2 bus2=p1ulv50024.1.2 switch=n enabled=y phases=2 Linecode=1P_OH_AL_2/0_Rucina_0_416_0_2_2

New Line.l(r:p1ulv2738-udm5193) Units=km Length=0.0803017 bus1=udm5193.1.2 bus2=p1ulv2738.1.2 switch=n enabled=y phases=2 Linecode=1P_OH_AL_4/0_Zuzara_0_416_0_2_2

New Line.l(r:udm5193-udt1252lv) Units=km Length=0.0353436 bus1=udt1252lv.1.2 bus2=udm5193.1.2 switch=n enabled=y phases=2 Linecode=1P_OH_AL_4/0_Zuzara_0_416_0_2_2

New Line.l(r:p1ulv39911-udm5194) Units=km Length=0.0241005 bus1=udm5194.1.2 bus2=p1ulv39911.1.2 switch=n enabled=y phases=2 Linecode=1P_OH_AL_2/0_Rucina_0_416_0_2_2

New Line.l(r:udm5194-udt1252lv) Units=km Length=0.0353451 bus1=udt1252lv.1.2 bus2=udm5194.1.2 switch=n enabled=y phases=2 Linecode=1P_OH_AL_4/0_Zuzara_0_416_0_2_2

New Line.l(r:p1ulv45008-udt1253lv) Units=km Length=0.0138349 bus1=udt1253lv.1.2 bus2=p1ulv45008.1.2 switch=n enabled=y phases=2 Linecode=1P_UG_AL_1/0_Brenau_0_416_0_2_2

New Line.l(r:p1ulv56140-udm5200) Units=km Length=0.0143563 bus1=udm5200.1.2 bus2=p1ulv56140.1.2 switch=n enabled=y phases=2 Linecode=1P_UG_AL_1/0_Brenau_0_416_0_2_2

New Line.l(r:p1ulv45331-udm5199) Units=km Length=0.013538500000000002 bus1=udm5199.1.2 bus2=p1ulv45331.1.2 switch=n enabled=y phases=2 Linecode=1P_UG_AL_1/0_Brenau_0_416_0_2_2

New Line.l(r:udm5199-udm5200) Units=km Length=0.009449170000000002 bus1=udm5200.1.2 bus2=udm5199.1.2 switch=n enabled=y phases=2 Linecode=1P_UG_AL_1/0_Brenau_0_416_0_2_2

New Line.l(r:udm5200-udt1253lv) Units=km Length=0.00962749 bus1=udt1253lv.1.2 bus2=udm5200.1.2 switch=n enabled=y phases=2 Linecode=1P_UG_AL_1/0_Brenau_0_416_0_2_2

New Line.l(r:p1ulv58333-udm5201) Units=km Length=0.0139426 bus1=udm5201.1.2 bus2=p1ulv58333.1.2 switch=n enabled=y phases=2 Linecode=1P_UG_AL_1/0_Brenau_0_416_0_2_2

New Line.l(r:p1ulv2739-udm5196) Units=km Length=0.0145532 bus1=udm5196.1.2 bus2=p1ulv2739.1.2 switch=n enabled=y phases=2 Linecode=1P_UG_AL_1/0_Brenau_0_416_0_2_2

New Line.l(r:p1ulv40031-udm5197) Units=km Length=0.0141251 bus1=udm5197.1.2 bus2=p1ulv40031.1.2 switch=n enabled=y phases=2 Linecode=1P_UG_AL_1/0_Brenau_0_416_0_2_2

New Line.l(r:udm5196-udm5197) Units=km Length=0.00823156 bus1=udm5196.1.2 bus2=udm5197.1.2 switch=n enabled=y phases=2 Linecode=1P_UG_AL_1/0_Brenau_0_416_0_2_2

New Line.l(r:udm5196-udm5201) Units=km Length=0.00963747 bus1=udm5201.1.2 bus2=udm5196.1.2 switch=n enabled=y phases=2 Linecode=1P_UG_AL_1/0_Brenau_0_416_0_2_2

New Line.l(r:udm5201-udt1253lv) Units=km Length=0.00963747 bus1=udt1253lv.1.2 bus2=udm5201.1.2 switch=n enabled=y phases=2 Linecode=1P_UG_AL_4/0_Sweetbriar_0_416_0_2_2

New Line.l(r:p1ulv54616-udt1254lv) Units=km Length=0.0529713 bus1=udt1254lv.1.2 bus2=p1ulv54616.1.2 switch=n enabled=y phases=2 Linecode=1P_OH_AL_4/0_Zuzara_0_416_0_2_2

New Line.l(r:p1ulv2740-udm5202) Units=km Length=0.0297072 bus1=udm5202.1.2 bus2=p1ulv2740.1.2 switch=n enabled=y phases=2 Linecode=1P_OH_AL_4/0_Zuzara_0_416_0_2_2

New Line.l(r:udm5202-udt1254lv) Units=km Length=0.019318500000000002 bus1=udt1254lv.1.2 bus2=udm5202.1.2 switch=n enabled=y phases=2 Linecode=1P_OH_AL_2/0_Rucina_0_416_0_2_2

New Line.l(r:p1ulv55284-udm5204) Units=km Length=0.0306027 bus1=udm5204.1.2 bus2=p1ulv55284.1.2 switch=n enabled=y phases=2 Linecode=1P_OH_AL_4/0_Zuzara_0_416_0_2_2

New Line.l(r:udm5204-udt1254lv) Units=km Length=0.0193298 bus1=udt1254lv.1.2 bus2=udm5204.1.2 switch=n enabled=y phases=2 Linecode=1P_OH_AL_2/0_Rucina_0_416_0_2_2

New Line.l(r:p1ulv2743-udt1257lv) Units=km Length=0.0189743 bus1=udt1257lv.1.2 bus2=p1ulv2743.1.2 switch=n enabled=y phases=2 Linecode=1P_UG_AL_1/0_Brenau_0_416_0_2_2

New Line.l(r:p1ulv2745-udt1259lv) Units=km Length=0.0294144 bus1=udt1259lv.1.2 bus2=p1ulv2745.1.2 switch=n enabled=y phases=2 Linecode=1P_OH_AL_4/0_Zuzara_0_416_0_2_2

New Line.l(r:p1ulv58916-udm5212) Units=km Length=0.0310001 bus1=udm5212.1.2 bus2=p1ulv58916.1.2 switch=n enabled=y phases=2 Linecode=1P_OH_AL_4/0_Zuzara_0_416_0_2_2

New Line.l(r:udm5212-udt1259lv) Units=km Length=0.0351601 bus1=udt1259lv.1.2 bus2=udm5212.1.2 switch=n enabled=y phases=2 Linecode=1P_OH_AL_4/0_Zuzara_0_416_0_2_2

New Line.l(r:p1ulv59486-udm5213) Units=km Length=0.0291825 bus1=udm5213.1.2 bus2=p1ulv59486.1.2 switch=n enabled=y phases=2 Linecode=1P_OH_AL_4/0_Zuzara_0_416_0_2_2

New Line.l(r:udm5213-udt1259lv) Units=km Length=0.0175801 bus1=udt1259lv.1.2 bus2=udm5213.1.2 switch=n enabled=y phases=2 Linecode=1P_OH_AL_2/0_Rucina_0_416_0_2_2

New Line.l(r:p1ulv2758-udt1269lv) Units=km Length=0.0180613 bus1=udt1269lv.1.2 bus2=p1ulv2758.1.2 switch=n enabled=y phases=2 Linecode=1P_OH_AL_2/0_Rucina_0_416_0_2_2

New Line.l(r:p1ulv43033-udt1269lv) Units=km Length=0.0179 bus1=udt1269lv.1.2 bus2=p1ulv43033.1.2 switch=n enabled=y phases=2 Linecode=1P_OH_AL_2/0_Rucina_0_416_0_2_2

New Line.l(r:p1ulv51710-udm5235) Units=km Length=0.0180097 bus1=udm5235.1.2 bus2=p1ulv51710.1.2 switch=n enabled=y phases=2 Linecode=1P_OH_AL_2/0_Rucina_0_416_0_2_2

New Line.l(r:udm5235-udt1269lv) Units=km Length=0.039467 bus1=udt1269lv.1.2 bus2=udm5235.1.2 switch=n enabled=y phases=2 Linecode=1P_OH_AL_4/0_Zuzara_0_416_0_2_2

New Line.l(r:p1ulv10123-udt4724lv) Units=km Length=0.0599777 bus1=udt4724lv.1.2 bus2=p1ulv10123.1.2 switch=n enabled=y phases=2 Linecode=1P_OH_AL_4/0_Zuzara_0_416_0_2_2

New Line.l(r:p1ulv55437-udm17882) Units=km Length=0.0295145 bus1=udm17882.1.2 bus2=p1ulv55437.1.2 switch=n enabled=y phases=2 Linecode=1P_OH_AL_4/0_Zuzara_0_416_0_2_2

New Line.l(r:udm17882-udt4724lv) Units=km Length=0.0188238 bus1=udt4724lv.1.2 bus2=udm17882.1.2 switch=n enabled=y phases=2 Linecode=1P_OH_AL_2/0_Rucina_0_416_0_2_2

New Line.l(r:p1ulv57926-udm17883) Units=km Length=0.0278578 bus1=udm17883.1.2 bus2=p1ulv57926.1.2 switch=n enabled=y phases=2 Linecode=1P_OH_AL_4/0_Zuzara_0_416_0_2_2

New Line.l(r:udm17883-udt4724lv) Units=km Length=0.0188367 bus1=udt4724lv.1.2 bus2=udm17883.1.2 switch=n enabled=y phases=2 Linecode=1P_OH_AL_2/0_Rucina_0_416_0_2_2

New Line.l(r:p1ulv10127-udt4726lv) Units=km Length=0.0395019 bus1=udt4726lv.1.2 bus2=p1ulv10127.1.2 switch=n enabled=y phases=2 Linecode=1P_OH_AL_4/0_Zuzara_0_416_0_2_2

New Line.l(r:p1ulv50227-udt4726lv) Units=km Length=0.019980600000000005 bus1=udt4726lv.1.2 bus2=p1ulv50227.1.2 switch=n enabled=y phases=2 Linecode=1P_OH_AL_2/0_Rucina_0_416_0_2_2

New Line.l(r:p1ulv46927-udm17887) Units=km Length=0.0205244 bus1=udm17887.1.2 bus2=p1ulv46927.1.2 switch=n enabled=y phases=2 Linecode=1P_OH_AL_2/0_Rucina_0_416_0_2_2

New Line.l(r:udm17887-udt4726lv) Units=km Length=0.015137900000000001 bus1=udt4726lv.1.2 bus2=udm17887.1.2 switch=n enabled=y phases=2 Linecode=1P_OH_AL_2/0_Rucina_0_416_0_2_2

New Line.l(r:p1ulv10128-udm17889) Units=km Length=0.0414163 bus1=udm17889.1.2 bus2=p1ulv10128.1.2 switch=n enabled=y phases=2 Linecode=1P_OH_AL_4/0_Zuzara_0_416_0_2_2

New Line.l(r:p1ulv40412-udm17889) Units=km Length=0.0234842 bus1=udm17889.1.2 bus2=p1ulv40412.1.2 switch=n enabled=y phases=2 Linecode=1P_OH_AL_2/0_Rucina_0_416_0_2_2

New Line.l(r:udm17889-udt4727lv) Units=km Length=0.0188273 bus1=udt4727lv.1.2 bus2=udm17889.1.2 switch=n enabled=y phases=2 Linecode=1P_OH_AL_2/0_Rucina_0_416_0_2_2

New Line.l(r:p1ulv56603-udm17891) Units=km Length=0.0230746 bus1=udm17891.1.2 bus2=p1ulv56603.1.2 switch=n enabled=y phases=2 Linecode=1P_OH_AL_2/0_Rucina_0_416_0_2_2

New Line.l(r:udm17891-udt4727lv) Units=km Length=0.0188367 bus1=udt4727lv.1.2 bus2=udm17891.1.2 switch=n enabled=y phases=2 Linecode=1P_OH_AL_2/0_Rucina_0_416_0_2_2

New Line.l(r:p1ulv11624-udt5343lv) Units=km Length=0.0105753 bus1=udt5343lv.1.2 bus2=p1ulv11624.1.2 switch=n enabled=y phases=2 Linecode=1P_OH_AL_2/0_Rucina_0_416_0_2_2

New Line.l(r:p1ulv11630-udt5343lv) Units=km Length=0.00930078 bus1=udt5343lv.1.2 bus2=p1ulv11630.1.2 switch=n enabled=y phases=2 Linecode=1P_OH_AL_2/0_Rucina_0_416_0_2_2

New Line.l(r:p1ulv11626-udm19945) Units=km Length=0.0127972 bus1=udm19945.1.2 bus2=p1ulv11626.1.2 switch=n enabled=y phases=2 Linecode=1P_OH_AL_2/0_Rucina_0_416_0_2_2

New Line.l(r:p1ulv11632-udm19945) Units=km Length=0.00614525 bus1=udm19945.1.2 bus2=p1ulv11632.1.2 switch=n enabled=y phases=2 Linecode=1P_OH_AL_2/0_Rucina_0_416_0_2_2

New Line.l(r:udm19945-udt5343lv) Units=km Length=0.0144949 bus1=udt5343lv.1.2 bus2=udm19945.1.2 switch=n enabled=y phases=2 Linecode=1P_OH_AL_2/0_Rucina_0_416_0_2_2

New Line.l(r:p1ulv11629-udm19947) Units=km Length=0.0102537 bus1=udm19947.1.2 bus2=p1ulv11629.1.2 switch=n enabled=y phases=2 Linecode=1P_OH_AL_2/0_Rucina_0_416_0_2_2

New Line.l(r:p1ulv11644-udm19947) Units=km Length=0.016625700000000004 bus1=udm19947.1.2 bus2=p1ulv11644.1.2 switch=n enabled=y phases=2 Linecode=1P_OH_AL_2/0_Rucina_0_416_0_2_2

New Line.l(r:p1ulv11645-udm19947) Units=km Length=0.0148231 bus1=udm19947.1.2 bus2=p1ulv11645.1.2 switch=n enabled=y phases=2 Linecode=1P_OH_AL_2/0_Rucina_0_416_0_2_2

New Line.l(r:p1ulv11628-udm19946) Units=km Length=0.00631585 bus1=udm19946.1.2 bus2=p1ulv11628.1.2 switch=n enabled=y phases=2 Linecode=1P_OH_AL_2/0_Rucina_0_416_0_2_2

New Line.l(r:udm19946-udm19947) Units=km Length=0.0120453 bus1=udm19947.1.2 bus2=udm19946.1.2 switch=n enabled=y phases=2 Linecode=1P_OH_AL_2/0_Rucina_0_416_0_2_2

New Line.l(r:udm19947-udt5343lv) Units=km Length=0.013649800000000002 bus1=udt5343lv.1.2 bus2=udm19947.1.2 switch=n enabled=y phases=2 Linecode=1P_OH_AL_2/0_Rucina_0_416_0_2_2

New Line.l(r:p1ulv11634-udm19953) Units=km Length=0.00993548 bus1=udm19953.1.2 bus2=p1ulv11634.1.2 switch=n enabled=y phases=2 Linecode=1P_OH_AL_2/0_Rucina_0_416_0_2_2

New Line.l(r:p1ulv11664-udm19953) Units=km Length=0.0107999 bus1=udm19953.1.2 bus2=p1ulv11664.1.2 switch=n enabled=y phases=2 Linecode=1P_OH_AL_2/0_Rucina_0_416_0_2_2

New Line.l(r:p1ulv11635-udm19954) Units=km Length=0.0101175 bus1=udm19954.1.2 bus2=p1ulv11635.1.2 switch=n enabled=y phases=2 Linecode=1P_OH_AL_2/0_Rucina_0_416_0_2_2

New Line.l(r:p1ulv11665-udm19954) Units=km Length=0.00770149 bus1=udm19954.1.2 bus2=p1ulv11665.1.2 switch=n enabled=y phases=2 Linecode=1P_OH_AL_2/0_Rucina_0_416_0_2_2

New Line.l(r:udm19953-udm19954) Units=km Length=0.0119503 bus1=udm19953.1.2 bus2=udm19954.1.2 switch=n enabled=y phases=2 Linecode=1P_OH_AL_2/0_Rucina_0_416_0_2_2

New Line.l(r:udm19953-udt5344lv) Units=km Length=0.0160296 bus1=udt5344lv.1.2 bus2=udm19953.1.2 switch=n enabled=y phases=2 Linecode=1P_OH_AL_2/0_Rucina_0_416_0_2_2

New Line.l(r:p1ulv11657-udm19955) Units=km Length=0.009135170000000001 bus1=udm19955.1.2 bus2=p1ulv11657.1.2 switch=n enabled=y phases=2 Linecode=1P_UG_AL_1/0_Brenau_0_416_0_2_2

New Line.l(r:p1ulv11633-udm19952) Units=km Length=0.00496774 bus1=udm19952.1.2 bus2=p1ulv11633.1.2 switch=n enabled=y phases=2 Linecode=1P_OH_AL_2/0_Rucina_0_416_0_2_2

New Line.l(r:udm19952-udm19955) Units=km Length=0.0405739 bus1=udm19955.1.2 bus2=udm19952.1.2 switch=n enabled=y phases=2 Linecode=1P_OH_AL_4/0_Zuzara_0_416_0_2_2

New Line.l(r:p1ulv11695-udm19959) Units=km Length=0.011524800000000002 bus1=udm19959.1.2 bus2=p1ulv11695.1.2 switch=n enabled=y phases=2 Linecode=1P_OH_AL_2/0_Rucina_0_416_0_2_2

New Line.l(r:udm19955-udm19959) Units=km Length=0.0313545 bus1=udm19955.1.2 bus2=udm19959.1.2 switch=n enabled=y phases=2 Linecode=1P_OH_AL_4/0_Zuzara_0_416_0_2_2

New Line.l(r:udm19955-udt5344lv) Units=km Length=0.026131 bus1=udt5344lv.1.2 bus2=udm19955.1.2 switch=n enabled=y phases=2 Linecode=1P_OH_AL_2/0_Rucina_0_416_0_2_2

New Line.l(r:p1ulv11686-udm19958) Units=km Length=0.00884616 bus1=udm19958.1.2 bus2=p1ulv11686.1.2 switch=n enabled=y phases=2 Linecode=1P_OH_AL_2/0_Rucina_0_416_0_2_2

New Line.l(r:udm19958-udt5344lv) Units=km Length=0.0101889 bus1=udt5344lv.1.2 bus2=udm19958.1.2 switch=n enabled=y phases=2 Linecode=1P_OH_AL_2/0_Rucina_0_416_0_2_2

New Line.l(r:p1ulv11636-udt5345lv) Units=km Length=0.0061442 bus1=udt5345lv.1.2 bus2=p1ulv11636.1.2 switch=n enabled=y phases=2 Linecode=1P_OH_AL_2/0_Rucina_0_416_0_2_2

New Line.l(r:p1ulv11637-udm19961) Units=km Length=0.0103314 bus1=udm19961.1.2 bus2=p1ulv11637.1.2 switch=n enabled=y phases=2 Linecode=1P_OH_AL_2/0_Rucina_0_416_0_2_2

New Line.l(r:udm19961-udt5345lv) Units=km Length=0.0172075 bus1=udt5345lv.1.2 bus2=udm19961.1.2 switch=n enabled=y phases=2 Linecode=1P_OH_AL_2/0_Rucina_0_416_0_2_2

New Line.l(r:p1ulv11666-udm19962) Units=km Length=0.0149045 bus1=udm19962.1.2 bus2=p1ulv11666.1.2 switch=n enabled=y phases=2 Linecode=1P_UG_AL_1/0_Brenau_0_416_0_2_2

New Line.l(r:udm19962-udt5345lv) Units=km Length=0.0384309 bus1=udt5345lv.1.2 bus2=udm19962.1.2 switch=n enabled=y phases=2 Linecode=1P_OH_AL_4/0_Zuzara_0_416_0_2_2

New Line.l(r:p1ulv11639-udt5346lv) Units=km Length=0.0114128 bus1=udt5346lv.1.2 bus2=p1ulv11639.1.2 switch=n enabled=y phases=2 Linecode=1P_OH_AL_2/0_Rucina_0_416_0_2_2

New Line.l(r:p1ulv11638-udm19963) Units=km Length=0.012127200000000001 bus1=udm19963.1.2 bus2=p1ulv11638.1.2 switch=n enabled=y phases=2 Linecode=1P_OH_AL_2/0_Rucina_0_416_0_2_2

New Line.l(r:udm19963-udt5346lv) Units=km Length=0.0117885 bus1=udt5346lv.1.2 bus2=udm19963.1.2 switch=n enabled=y phases=2 Linecode=1P_OH_AL_2/0_Rucina_0_416_0_2_2

New Line.l(r:p1ulv11641-udm19965) Units=km Length=0.0138529 bus1=udm19965.1.2 bus2=p1ulv11641.1.2 switch=n enabled=y phases=2 Linecode=1P_OH_AL_2/0_Rucina_0_416_0_2_2

New Line.l(r:udm19965-udt5346lv) Units=km Length=0.0136056 bus1=udt5346lv.1.2 bus2=udm19965.1.2 switch=n enabled=y phases=2 Linecode=1P_OH_AL_2/0_Rucina_0_416_0_2_2

New Line.l(r:p1ulv11642-udt5347lv) Units=km Length=0.0205381 bus1=udt5347lv.1.2 bus2=p1ulv11642.1.2 switch=n enabled=y phases=2 Linecode=1P_UG_AL_1/0_Brenau_0_416_0_2_2

New Line.l(r:p1ulv11643-udm19967) Units=km Length=0.018993 bus1=udm19967.1.2 bus2=p1ulv11643.1.2 switch=n enabled=y phases=2 Linecode=1P_UG_AL_1/0_Brenau_0_416_0_2_2

New Line.l(r:udm19967-udt5347lv) Units=km Length=0.00695731 bus1=udt5347lv.1.2 bus2=udm19967.1.2 switch=n enabled=y phases=2 Linecode=1P_UG_AL_1/0_Brenau_0_416_0_2_2

New Line.l(r:p1ulv55794-udm19968) Units=km Length=0.0298625 bus1=udm19968.1.2 bus2=p1ulv55794.1.2 switch=n enabled=y phases=2 Linecode=1P_UG_AL_1/0_Brenau_0_416_0_2_2

New Line.l(r:udm19968-udt5347lv) Units=km Length=0.019145200000000005 bus1=udt5347lv.1.2 bus2=udm19968.1.2 switch=n enabled=y phases=2 Linecode=1P_UG_AL_1/0_Brenau_0_416_0_2_2

New Line.l(r:p1ulv11652-udt5348lv) Units=km Length=0.0146253 bus1=udt5348lv.1.2 bus2=p1ulv11652.1.2 switch=n enabled=y phases=2 Linecode=1P_OH_AL_2/0_Rucina_0_416_0_2_2

New Line.l(r:p1ulv11655-udt5348lv) Units=km Length=0.015023200000000002 bus1=udt5348lv.1.2 bus2=p1ulv11655.1.2 switch=n enabled=y phases=2 Linecode=1P_OH_AL_2/0_Rucina_0_416_0_2_2

New Line.l(r:p1ulv11671-udt5348lv) Units=km Length=0.0110221 bus1=udt5348lv.1.2 bus2=p1ulv11671.1.2 switch=n enabled=y phases=2 Linecode=1P_OH_AL_2/0_Rucina_0_416_0_2_2

New Line.l(r:p1ulv11646-udm19969) Units=km Length=0.0211484 bus1=udm19969.1.2 bus2=p1ulv11646.1.2 switch=n enabled=y phases=2 Linecode=1P_OH_AL_2/0_Rucina_0_416_0_2_2

New Line.l(r:p1ulv11668-udm19969) Units=km Length=0.0101503 bus1=udm19969.1.2 bus2=p1ulv11668.1.2 switch=n enabled=y phases=2 Linecode=1P_OH_AL_2/0_Rucina_0_416_0_2_2

New Line.l(r:p1ulv11670-udm19969) Units=km Length=0.0103353 bus1=udm19969.1.2 bus2=p1ulv11670.1.2 switch=n enabled=y phases=2 Linecode=1P_OH_AL_2/0_Rucina_0_416_0_2_2

New Line.l(r:p1ulv11647-udm19970) Units=km Length=0.0177261 bus1=udm19970.1.2 bus2=p1ulv11647.1.2 switch=n enabled=y phases=2 Linecode=1P_OH_AL_2/0_Rucina_0_416_0_2_2

New Line.l(r:p1ulv11648-udm19970) Units=km Length=0.0127974 bus1=udm19970.1.2 bus2=p1ulv11648.1.2 switch=n enabled=y phases=2 Linecode=1P_OH_AL_2/0_Rucina_0_416_0_2_2

New Line.l(r:p1ulv11651-udm19970) Units=km Length=0.00732593 bus1=udm19970.1.2 bus2=p1ulv11651.1.2 switch=n enabled=y phases=2 Linecode=1P_OH_AL_2/0_Rucina_0_416_0_2_2

New Line.l(r:udm19969-udm19970) Units=km Length=0.0139149 bus1=udm19969.1.2 bus2=udm19970.1.2 switch=n enabled=y phases=2 Linecode=1P_OH_AL_2/0_Rucina_0_416_0_2_2

New Line.l(r:udm19969-udt5348lv) Units=km Length=0.0143301 bus1=udt5348lv.1.2 bus2=udm19969.1.2 switch=n enabled=y phases=2 Linecode=1P_OH_AL_2/0_Rucina_0_416_0_2_2

New Line.l(r:p1ulv11649-udm19972) Units=km Length=0.0119897 bus1=udm19972.1.2 bus2=p1ulv11649.1.2 switch=n enabled=y phases=2 Linecode=1P_OH_AL_2/0_Rucina_0_416_0_2_2

New Line.l(r:p1ulv11653-udm19972) Units=km Length=0.011511500000000001 bus1=udm19972.1.2 bus2=p1ulv11653.1.2 switch=n enabled=y phases=2 Linecode=1P_OH_AL_2/0_Rucina_0_416_0_2_2

New Line.l(r:p1ulv11654-udm19972) Units=km Length=0.0105129 bus1=udm19972.1.2 bus2=p1ulv11654.1.2 switch=n enabled=y phases=2 Linecode=1P_OH_AL_2/0_Rucina_0_416_0_2_2

New Line.l(r:p1ulv11650-udm19973) Units=km Length=0.00848261 bus1=udm19973.1.2 bus2=p1ulv11650.1.2 switch=n enabled=y phases=2 Linecode=1P_OH_AL_2/0_Rucina_0_416_0_2_2

New Line.l(r:udm19972-udm19973) Units=km Length=0.0126121 bus1=udm19972.1.2 bus2=udm19973.1.2 switch=n enabled=y phases=2 Linecode=1P_OH_AL_2/0_Rucina_0_416_0_2_2

New Line.l(r:udm19972-udt5348lv) Units=km Length=0.0136411 bus1=udt5348lv.1.2 bus2=udm19972.1.2 switch=n enabled=y phases=2 Linecode=1P_OH_AL_2/0_Rucina_0_416_0_2_2

New Line.l(r:p1ulv11656-udt5349lv) Units=km Length=0.016895 bus1=udt5349lv.1.2 bus2=p1ulv11656.1.2 switch=n enabled=y phases=2 Linecode=1P_OH_AL_2/0_Rucina_0_416_0_2_2

New Line.l(r:p1ulv11658-udt5349lv) Units=km Length=0.0125614 bus1=udt5349lv.1.2 bus2=p1ulv11658.1.2 switch=n enabled=y phases=2 Linecode=1P_OH_AL_2/0_Rucina_0_416_0_2_2

New Line.l(r:p1ulv11660-udt5349lv) Units=km Length=0.0216049 bus1=udt5349lv.1.2 bus2=p1ulv11660.1.2 switch=n enabled=y phases=2 Linecode=1P_OH_AL_2/0_Rucina_0_416_0_2_2

New Line.l(r:p1ulv11661-udt5349lv) Units=km Length=0.013443800000000002 bus1=udt5349lv.1.2 bus2=p1ulv11661.1.2 switch=n enabled=y phases=2 Linecode=1P_OH_AL_2/0_Rucina_0_416_0_2_2

New Line.l(r:p1ulv11662-udt5349lv) Units=km Length=0.00702129 bus1=udt5349lv.1.2 bus2=p1ulv11662.1.2 switch=n enabled=y phases=2 Linecode=1P_OH_AL_2/0_Rucina_0_416_0_2_2

New Line.l(r:p1ulv11703-udm19987) Units=km Length=0.0109409 bus1=udm19987.1.2 bus2=p1ulv11703.1.2 switch=n enabled=y phases=2 Linecode=1P_OH_AL_2/0_Rucina_0_416_0_2_2

New Line.l(r:udm19987-udt5349lv) Units=km Length=0.0129524 bus1=udt5349lv.1.2 bus2=udm19987.1.2 switch=n enabled=y phases=2 Linecode=1P_OH_AL_2/0_Rucina_0_416_0_2_2
