New Line.l(r:p1ulv1392-udt707lv) Units=km Length=0.0133064 bus1=udt707lv.1.2 bus2=p1ulv1392.1.2 switch=n enabled=y phases=2 Linecode=1P_OH_AL_2/0_Rucina_0_416_0_2_2

New Line.l(r:p1ulv35321-udm2972) Units=km Length=0.0138545 bus1=udm2972.1.2 bus2=p1ulv35321.1.2 switch=n enabled=y phases=2 Linecode=1P_OH_AL_2/0_Rucina_0_416_0_2_2

New Line.l(r:udm2972-udt707lv) Units=km Length=0.030037900000000003 bus1=udt707lv.1.2 bus2=udm2972.1.2 switch=n enabled=y phases=2 Linecode=1P_OH_AL_4/0_Zuzara_0_416_0_2_2

New Line.l(r:p1ulv34406-udt762lv) Units=km Length=0.0408014 bus1=udt762lv.1.2 bus2=p1ulv34406.1.2 switch=n enabled=y phases=2 Linecode=1P_UG_AL_1/0_Brenau_0_416_0_2_2

New Line.l(r:p1ulv34796-udt762lv) Units=km Length=0.013015 bus1=udt762lv.1.2 bus2=p1ulv34796.1.2 switch=n enabled=y phases=2 Linecode=1P_UG_AL_1/0_Brenau_0_416_0_2_2

New Line.l(r:p1ulv37795-udt762lv) Units=km Length=0.0132134 bus1=udt762lv.1.2 bus2=p1ulv37795.1.2 switch=n enabled=y phases=2 Linecode=1P_UG_AL_1/0_Brenau_0_416_0_2_2

New Line.l(r:p1ulv1542-udm3170) Units=km Length=0.0119623 bus1=udm3170.1.2 bus2=p1ulv1542.1.2 switch=n enabled=y phases=2 Linecode=1P_UG_AL_1/0_Brenau_0_416_0_2_2

New Line.l(r:p1ulv42538-udm3170) Units=km Length=0.0120989 bus1=udm3170.1.2 bus2=p1ulv42538.1.2 switch=n enabled=y phases=2 Linecode=1P_UG_AL_1/0_Brenau_0_416_0_2_2

New Line.l(r:udm3170-udt762lv) Units=km Length=0.00971001 bus1=udt762lv.1.2 bus2=udm3170.1.2 switch=n enabled=y phases=2 Linecode=1P_UG_AL_1/0_Brenau_0_416_0_2_2

New Line.l(r:p1ulv26876-udm3171) Units=km Length=0.0110301 bus1=udm3171.1.2 bus2=p1ulv26876.1.2 switch=n enabled=y phases=2 Linecode=1P_UG_AL_1/0_Brenau_0_416_0_2_2

New Line.l(r:udm3171-udt762lv) Units=km Length=0.00971001 bus1=udt762lv.1.2 bus2=udm3171.1.2 switch=n enabled=y phases=2 Linecode=1P_UG_AL_1/0_Brenau_0_416_0_2_2

New Line.l(r:p1ulv30182-udm3182) Units=km Length=0.0126197 bus1=udm3182.1.2 bus2=p1ulv30182.1.2 switch=n enabled=y phases=2 Linecode=1P_UG_AL_1/0_Brenau_0_416_0_2_2

New Line.l(r:p1ulv1544-udm3181) Units=km Length=0.00794808 bus1=udm3181.1.2 bus2=p1ulv1544.1.2 switch=n enabled=y phases=2 Linecode=1P_UG_AL_1/0_Brenau_0_416_0_2_2

New Line.l(r:udm3181-udm3182) Units=km Length=0.0387714 bus1=udm3182.1.2 bus2=udm3181.1.2 switch=n enabled=y phases=2 Linecode=1P_UG_AL_1/0_Brenau_0_416_0_2_2

New Line.l(r:udm3182-udt764lv) Units=km Length=0.00859001 bus1=udt764lv.1.2 bus2=udm3182.1.2 switch=n enabled=y phases=2 Linecode=1P_UG_AL_4/0_Sweetbriar_0_416_0_2_2

New Line.l(r:p1ulv34477-udm3183) Units=km Length=0.0161759 bus1=udm3183.1.2 bus2=p1ulv34477.1.2 switch=n enabled=y phases=2 Linecode=1P_UG_AL_1/0_Brenau_0_416_0_2_2

New Line.l(r:p1ulv47656-udm3184) Units=km Length=0.0157314 bus1=udm3184.1.2 bus2=p1ulv47656.1.2 switch=n enabled=y phases=2 Linecode=1P_UG_AL_1/0_Brenau_0_416_0_2_2

New Line.l(r:udm3183-udm3184) Units=km Length=0.02577 bus1=udm3183.1.2 bus2=udm3184.1.2 switch=n enabled=y phases=2 Linecode=1P_UG_AL_1/0_Brenau_0_416_0_2_2

New Line.l(r:udm3183-udt764lv) Units=km Length=0.00859 bus1=udt764lv.1.2 bus2=udm3183.1.2 switch=n enabled=y phases=2 Linecode=1P_UG_AL_1/0_Brenau_0_416_0_2_2

New Line.l(r:p1ulv27090-udt766lv) Units=km Length=0.015128400000000002 bus1=udt766lv.1.2 bus2=p1ulv27090.1.2 switch=n enabled=y phases=2 Linecode=1P_OH_AL_2/0_Rucina_0_416_0_2_2

New Line.l(r:p1ulv28537-udt766lv) Units=km Length=0.010606500000000001 bus1=udt766lv.1.2 bus2=p1ulv28537.1.2 switch=n enabled=y phases=2 Linecode=1P_OH_AL_2/0_Rucina_0_416_0_2_2

New Line.l(r:p1ulv48880-udt766lv) Units=km Length=0.0176097 bus1=udt766lv.1.2 bus2=p1ulv48880.1.2 switch=n enabled=y phases=2 Linecode=1P_OH_AL_2/0_Rucina_0_416_0_2_2

New Line.l(r:p1ulv1546-udm3186) Units=km Length=0.0108181 bus1=udm3186.1.2 bus2=p1ulv1546.1.2 switch=n enabled=y phases=2 Linecode=1P_OH_AL_2/0_Rucina_0_416_0_2_2

New Line.l(r:udm3186-udt766lv) Units=km Length=0.0184903 bus1=udt766lv.1.2 bus2=udm3186.1.2 switch=n enabled=y phases=2 Linecode=1P_OH_AL_2/0_Rucina_0_416_0_2_2

New Line.l(r:p1ulv1549-udt769lv) Units=km Length=0.006525180000000001 bus1=udt769lv.1.2 bus2=p1ulv1549.1.2 switch=n enabled=y phases=2 Linecode=1P_UG_AL_2/0_Converse_0_416_0_2_2

New Line.l(r:p1ulv27267-udm3201) Units=km Length=0.0100696 bus1=udm3201.1.2 bus2=p1ulv27267.1.2 switch=n enabled=y phases=2 Linecode=1P_UG_AL_1/0_Brenau_0_416_0_2_2

New Line.l(r:p1ulv32313-udm3204) Units=km Length=0.0100352 bus1=udm3204.1.2 bus2=p1ulv32313.1.2 switch=n enabled=y phases=2 Linecode=1P_UG_AL_1/0_Brenau_0_416_0_2_2

New Line.l(r:p1ulv47744-udm3204) Units=km Length=0.0058231 bus1=udm3204.1.2 bus2=p1ulv47744.1.2 switch=n enabled=y phases=2 Linecode=1P_UG_AL_1/0_Brenau_0_416_0_2_2

New Line.l(r:udm3201-udm3204) Units=km Length=0.017341700000000005 bus1=udm3201.1.2 bus2=udm3204.1.2 switch=n enabled=y phases=2 Linecode=1P_UG_AL_1/0_Brenau_0_416_0_2_2

New Line.l(r:udm3201-udt769lv) Units=km Length=0.00867097 bus1=udt769lv.1.2 bus2=udm3201.1.2 switch=n enabled=y phases=2 Linecode=1P_UG_AL_4/0_Sweetbriar_0_416_0_2_2

New Line.l(r:p1ulv28677-udm3203) Units=km Length=0.0106291 bus1=udm3203.1.2 bus2=p1ulv28677.1.2 switch=n enabled=y phases=2 Linecode=1P_UG_AL_1/0_Brenau_0_416_0_2_2

New Line.l(r:p1ulv48813-udm3203) Units=km Length=0.00958341 bus1=udm3203.1.2 bus2=p1ulv48813.1.2 switch=n enabled=y phases=2 Linecode=1P_UG_AL_1/0_Brenau_0_416_0_2_2

New Line.l(r:p1ulv27735-udm3202) Units=km Length=0.007056640000000001 bus1=udm3202.1.2 bus2=p1ulv27735.1.2 switch=n enabled=y phases=2 Linecode=1P_UG_AL_1/0_Brenau_0_416_0_2_2

New Line.l(r:udm3202-udm3203) Units=km Length=0.00867097 bus1=udm3203.1.2 bus2=udm3202.1.2 switch=n enabled=y phases=2 Linecode=1P_UG_AL_1/0_Brenau_0_416_0_2_2

New Line.l(r:udm3203-udt769lv) Units=km Length=0.00867083 bus1=udt769lv.1.2 bus2=udm3203.1.2 switch=n enabled=y phases=2 Linecode=1P_UG_AL_4/0_Sweetbriar_0_416_0_2_2

New Line.l(r:p1ulv46006-udt778lv) Units=km Length=0.00616491 bus1=udt778lv.1.2 bus2=p1ulv46006.1.2 switch=n enabled=y phases=2 Linecode=1P_UG_AL_4/0_Sweetbriar_0_416_0_2_2

New Line.l(r:p1ulv21368-udm3239) Units=km Length=0.00973605 bus1=udm3239.1.2 bus2=p1ulv21368.1.2 switch=n enabled=y phases=2 Linecode=1P_OH_AL_2/0_Rucina_0_416_0_2_2

New Line.l(r:p1ulv1559-udm3238) Units=km Length=0.0132942 bus1=udm3238.1.2 bus2=p1ulv1559.1.2 switch=n enabled=y phases=2 Linecode=1P_OH_AL_2/0_Rucina_0_416_0_2_2

New Line.l(r:udm3238-udm3239) Units=km Length=0.0381893 bus1=udm3239.1.2 bus2=udm3238.1.2 switch=n enabled=y phases=2 Linecode=1P_OH_AL_4/0_Zuzara_0_416_0_2_2

New Line.l(r:udm3239-udt778lv) Units=km Length=0.0272976 bus1=udt778lv.1.2 bus2=udm3239.1.2 switch=n enabled=y phases=2 Linecode=1P_OH_AL_4/0_Zuzara_0_416_0_2_2

New Line.l(r:p1ulv21369-udm3240) Units=km Length=0.0127809 bus1=udm3240.1.2 bus2=p1ulv21369.1.2 switch=n enabled=y phases=2 Linecode=1P_UG_AL_1/0_Brenau_0_416_0_2_2

New Line.l(r:udm3240-udt778lv) Units=km Length=0.0363936 bus1=udt778lv.1.2 bus2=udm3240.1.2 switch=n enabled=y phases=2 Linecode=1P_UG_AL_1/0_Brenau_0_416_0_2_2

New Line.l(r:p1ulv43866-udm3271) Units=km Length=0.00900081 bus1=udm3271.1.2 bus2=p1ulv43866.1.2 switch=n enabled=y phases=2 Linecode=1P_UG_AL_1/0_Brenau_0_416_0_2_2

New Line.l(r:p1ulv38663-udm3268) Units=km Length=0.014638200000000002 bus1=udm3268.1.2 bus2=p1ulv38663.1.2 switch=n enabled=y phases=2 Linecode=1P_UG_AL_1/0_Brenau_0_416_0_2_2

New Line.l(r:udm3268-udm3271) Units=km Length=0.0291871 bus1=udm3271.1.2 bus2=udm3268.1.2 switch=n enabled=y phases=2 Linecode=1P_UG_AL_1/0_Brenau_0_416_0_2_2

New Line.l(r:udm3271-udt784lv) Units=km Length=0.0486487 bus1=udt784lv.1.2 bus2=udm3271.1.2 switch=n enabled=y phases=2 Linecode=1P_UG_AL_1/0_Brenau_0_416_0_2_2

New Line.l(r:p1ulv49083-udm3273) Units=km Length=0.0360128 bus1=udm3273.1.2 bus2=p1ulv49083.1.2 switch=n enabled=y phases=2 Linecode=1P_UG_AL_1/0_Brenau_0_416_0_2_2

New Line.l(r:p1ulv1567-udm3266) Units=km Length=0.0147614 bus1=udm3266.1.2 bus2=p1ulv1567.1.2 switch=n enabled=y phases=2 Linecode=1P_UG_AL_1/0_Brenau_0_416_0_2_2

New Line.l(r:p1ulv38977-udm3266) Units=km Length=0.025122000000000002 bus1=udm3266.1.2 bus2=p1ulv38977.1.2 switch=n enabled=y phases=2 Linecode=1P_UG_AL_1/0_Brenau_0_416_0_2_2

New Line.l(r:p1ulv42201-udm3270) Units=km Length=0.0397612 bus1=udm3270.1.2 bus2=p1ulv42201.1.2 switch=n enabled=y phases=2 Linecode=1P_UG_AL_1/0_Brenau_0_416_0_2_2

New Line.l(r:p1ulv21370-udm3267) Units=km Length=0.015506800000000001 bus1=udm3267.1.2 bus2=p1ulv21370.1.2 switch=n enabled=y phases=2 Linecode=1P_UG_AL_1/0_Brenau_0_416_0_2_2

New Line.l(r:p1ulv45839-udm3267) Units=km Length=0.0605467 bus1=udm3267.1.2 bus2=p1ulv45839.1.2 switch=n enabled=y phases=2 Linecode=1P_UG_AL_1/0_Brenau_0_416_0_2_2

New Line.l(r:udm3267-udm3270) Units=km Length=0.00973594 bus1=udm3270.1.2 bus2=udm3267.1.2 switch=n enabled=y phases=2 Linecode=1P_UG_AL_2/0_Converse_0_416_0_2_2

New Line.l(r:udm3266-udm3270) Units=km Length=0.009725600000000001 bus1=udm3266.1.2 bus2=udm3270.1.2 switch=n enabled=y phases=2 Linecode=1P_UG_AL_4/0_Sweetbriar_0_416_0_2_2

New Line.l(r:udm3266-udm3273) Units=km Length=0.00973559 bus1=udm3273.1.2 bus2=udm3266.1.2 switch=n enabled=y phases=2 Linecode=1P_UG_AL_4/0_Sweetbriar_0_416_0_2_2

New Line.l(r:udm3273-udt784lv) Units=km Length=0.009725600000000001 bus1=udt784lv.1.2 bus2=udm3273.1.2 switch=n enabled=y phases=2 Linecode=1P_UG_AL_4/0_Sweetbriar_0_416_0_2_2

New Line.l(r:p1ulv1570-udt787lv) Units=km Length=0.0256205 bus1=udt787lv.1.2 bus2=p1ulv1570.1.2 switch=n enabled=y phases=2 Linecode=1P_OH_AL_2/0_Rucina_0_416_0_2_2

New Line.l(r:p1ulv21367-udm3280) Units=km Length=0.009459900000000002 bus1=udm3280.1.2 bus2=p1ulv21367.1.2 switch=n enabled=y phases=2 Linecode=1P_OH_AL_2/0_Rucina_0_416_0_2_2

New Line.l(r:udm3280-udt787lv) Units=km Length=0.0190847 bus1=udt787lv.1.2 bus2=udm3280.1.2 switch=n enabled=y phases=2 Linecode=1P_OH_AL_2/0_Rucina_0_416_0_2_2

New Line.l(r:p1ulv1571-udm3281) Units=km Length=0.0117561 bus1=udm3281.1.2 bus2=p1ulv1571.1.2 switch=n enabled=y phases=2 Linecode=1P_UG_AL_1/0_Brenau_0_416_0_2_2

New Line.l(r:udm3281-udt788lv) Units=km Length=0.0580619 bus1=udt788lv.1.2 bus2=udm3281.1.2 switch=n enabled=y phases=2 Linecode=1P_UG_AL_1/0_Brenau_0_416_0_2_2

New Line.l(r:p1ulv38305-udm3282) Units=km Length=0.018192300000000005 bus1=udm3282.1.2 bus2=p1ulv38305.1.2 switch=n enabled=y phases=2 Linecode=1P_UG_AL_4/0_Sweetbriar_0_416_0_2_2

New Line.l(r:udm3282-udt788lv) Units=km Length=0.029301100000000004 bus1=udt788lv.1.2 bus2=udm3282.1.2 switch=n enabled=y phases=2 Linecode=1P_UG_AL_4/0_Sweetbriar_0_416_0_2_2

New Line.l(r:p1ulv19685-udt793lv) Units=km Length=0.0111521 bus1=udt793lv.1.2 bus2=p1ulv19685.1.2 switch=n enabled=y phases=2 Linecode=1P_UG_AL_1/0_Brenau_0_416_0_2_2

New Line.l(r:p1ulv1577-udm3288) Units=km Length=0.0157044 bus1=udm3288.1.2 bus2=p1ulv1577.1.2 switch=n enabled=y phases=2 Linecode=1P_UG_AL_4/0_Sweetbriar_0_416_0_2_2

New Line.l(r:udm3288-udt793lv) Units=km Length=0.00987111 bus1=udt793lv.1.2 bus2=udm3288.1.2 switch=n enabled=y phases=2 Linecode=1P_UG_AL_4/0_Sweetbriar_0_416_0_2_2

New Line.l(r:p1ulv19694-udm3291) Units=km Length=0.00404061 bus1=udm3291.1.2 bus2=p1ulv19694.1.2 switch=n enabled=y phases=2 Linecode=1P_UG_AL_1/0_Brenau_0_416_0_2_2

New Line.l(r:p1ulv19690-udm3290) Units=km Length=0.00498145 bus1=udm3290.1.2 bus2=p1ulv19690.1.2 switch=n enabled=y phases=2 Linecode=1P_UG_AL_1/0_Brenau_0_416_0_2_2

New Line.l(r:udm3290-udm3291) Units=km Length=0.00988094 bus1=udm3291.1.2 bus2=udm3290.1.2 switch=n enabled=y phases=2 Linecode=1P_UG_AL_1/0_Brenau_0_416_0_2_2

New Line.l(r:udm3291-udt793lv) Units=km Length=0.00987111 bus1=udt793lv.1.2 bus2=udm3291.1.2 switch=n enabled=y phases=2 Linecode=1P_UG_AL_1/0_Brenau_0_416_0_2_2

New Line.l(r:p1ulv1581-udm3297) Units=km Length=0.0118003 bus1=udm3297.1.2 bus2=p1ulv1581.1.2 switch=n enabled=y phases=2 Linecode=1P_UG_AL_2/0_Converse_0_416_0_2_2

New Line.l(r:udm3297-udt797lv) Units=km Length=0.00907068 bus1=udt797lv.1.2 bus2=udm3297.1.2 switch=n enabled=y phases=2 Linecode=1P_UG_AL_2/0_Converse_0_416_0_2_2

New Line.l(r:p1ulv1582-udm3298) Units=km Length=0.011844000000000002 bus1=udm3298.1.2 bus2=p1ulv1582.1.2 switch=n enabled=y phases=2 Linecode=1P_UG_AL_1/0_Brenau_0_416_0_2_2

New Line.l(r:udm3298-udt797lv) Units=km Length=0.00908067 bus1=udt797lv.1.2 bus2=udm3298.1.2 switch=n enabled=y phases=2 Linecode=1P_UG_AL_1/0_Brenau_0_416_0_2_2

New Line.l(r:p1ulv1583-udm3299) Units=km Length=0.0113192 bus1=udm3299.1.2 bus2=p1ulv1583.1.2 switch=n enabled=y phases=2 Linecode=1P_OH_AL_2/0_Rucina_0_416_0_2_2

New Line.l(r:udm3299-udt798lv) Units=km Length=0.0610184 bus1=udt798lv.1.2 bus2=udm3299.1.2 switch=n enabled=y phases=2 Linecode=1P_OH_AL_4/0_Zuzara_0_416_0_2_2

New Line.l(r:p1ulv19705-udm3300) Units=km Length=0.006782580000000001 bus1=udm3300.1.2 bus2=p1ulv19705.1.2 switch=n enabled=y phases=2 Linecode=1P_UG_AL_1/0_Brenau_0_416_0_2_2

New Line.l(r:udm3300-udt798lv) Units=km Length=0.0366326 bus1=udt798lv.1.2 bus2=udm3300.1.2 switch=n enabled=y phases=2 Linecode=1P_OH_AL_4/0_Zuzara_0_416_0_2_2

New Line.l(r:p1ulv21388-udt799lv) Units=km Length=0.011799500000000001 bus1=udt799lv.1.2 bus2=p1ulv21388.1.2 switch=n enabled=y phases=2 Linecode=1P_UG_AL_4/0_Sweetbriar_0_416_0_2_2

New Line.l(r:p1ulv1585-udm3302) Units=km Length=0.0428812 bus1=udm3302.1.2 bus2=p1ulv1585.1.2 switch=n enabled=y phases=2 Linecode=1P_UG_AL_1/0_Brenau_0_416_0_2_2

New Line.l(r:p1ulv19573-udm3302) Units=km Length=0.0121101 bus1=udm3302.1.2 bus2=p1ulv19573.1.2 switch=n enabled=y phases=2 Linecode=1P_UG_AL_1/0_Brenau_0_416_0_2_2

New Line.l(r:p1ulv1584-udm3301) Units=km Length=0.0500708 bus1=udm3301.1.2 bus2=p1ulv1584.1.2 switch=n enabled=y phases=2 Linecode=1P_UG_AL_1/0_Brenau_0_416_0_2_2

New Line.l(r:udm3301-udm3302) Units=km Length=0.00942501 bus1=udm3302.1.2 bus2=udm3301.1.2 switch=n enabled=y phases=2 Linecode=1P_UG_AL_1/0_Brenau_0_416_0_2_2

New Line.l(r:udm3302-udt799lv) Units=km Length=0.00941506 bus1=udt799lv.1.2 bus2=udm3302.1.2 switch=n enabled=y phases=2 Linecode=1P_UG_AL_4/0_Sweetbriar_0_416_0_2_2

New Line.l(r:p1ulv29382-udm3305) Units=km Length=0.008693040000000003 bus1=udm3305.1.2 bus2=p1ulv29382.1.2 switch=n enabled=y phases=2 Linecode=1P_UG_AL_1/0_Brenau_0_416_0_2_2

New Line.l(r:udm3305-udt799lv) Units=km Length=0.00942501 bus1=udt799lv.1.2 bus2=udm3305.1.2 switch=n enabled=y phases=2 Linecode=1P_UG_AL_1/0_Brenau_0_416_0_2_2

New Line.l(r:p1ulv29039-udm8729) Units=km Length=0.00613506 bus1=udm8729.1.2 bus2=p1ulv29039.1.2 switch=n enabled=y phases=2 Linecode=1P_UG_AL_1/0_Brenau_0_416_0_2_2

New Line.l(r:udm8729-udt2171lv) Units=km Length=0.039754 bus1=udt2171lv.1.2 bus2=udm8729.1.2 switch=n enabled=y phases=2 Linecode=1P_UG_AL_1/0_Brenau_0_416_0_2_2

New Line.l(r:p1ulv36861-udm8731) Units=km Length=0.00556925 bus1=udm8731.1.2 bus2=p1ulv36861.1.2 switch=n enabled=y phases=2 Linecode=1P_UG_AL_1/0_Brenau_0_416_0_2_2

New Line.l(r:p1ulv4807-udm8728) Units=km Length=0.0110354 bus1=udm8728.1.2 bus2=p1ulv4807.1.2 switch=n enabled=y phases=2 Linecode=1P_UG_AL_4/0_Sweetbriar_0_416_0_2_2

New Line.l(r:p1ulv33690-udm8728) Units=km Length=0.008777730000000001 bus1=udm8728.1.2 bus2=p1ulv33690.1.2 switch=n enabled=y phases=2 Linecode=1P_UG_AL_1/0_Brenau_0_416_0_2_2

New Line.l(r:udm8728-udm8731) Units=km Length=0.0193316 bus1=udm8731.1.2 bus2=udm8728.1.2 switch=n enabled=y phases=2 Linecode=1P_UG_AL_4/0_Sweetbriar_0_416_0_2_2

New Line.l(r:udm8731-udt2171lv) Units=km Length=0.00966075 bus1=udt2171lv.1.2 bus2=udm8731.1.2 switch=n enabled=y phases=2 Linecode=1P_UG_AL_4/0_Sweetbriar_0_416_0_2_2

New Line.l(r:p1ulv44063-udm8732) Units=km Length=0.0538404 bus1=udm8732.1.2 bus2=p1ulv44063.1.2 switch=n enabled=y phases=2 Linecode=1P_UG_AL_1/0_Brenau_0_416_0_2_2

New Line.l(r:udm8732-udt2171lv) Units=km Length=0.0371247 bus1=udt2171lv.1.2 bus2=udm8732.1.2 switch=n enabled=y phases=2 Linecode=1P_UG_AL_1/0_Brenau_0_416_0_2_2

New Line.l(r:p1ulv4808-udm8733) Units=km Length=0.00511945 bus1=udm8733.1.2 bus2=p1ulv4808.1.2 switch=n enabled=y phases=2 Linecode=1P_OH_AL_2/0_Rucina_0_416_0_2_2

New Line.l(r:udm8733-udt2172lv) Units=km Length=0.0324828 bus1=udt2172lv.1.2 bus2=udm8733.1.2 switch=n enabled=y phases=2 Linecode=1P_OH_AL_4/0_Zuzara_0_416_0_2_2

New Line.l(r:p1ulv30642-udm8734) Units=km Length=0.0095235 bus1=udm8734.1.2 bus2=p1ulv30642.1.2 switch=n enabled=y phases=2 Linecode=1P_UG_AL_1/0_Brenau_0_416_0_2_2

New Line.l(r:udm8734-udt2172lv) Units=km Length=0.0632332 bus1=udt2172lv.1.2 bus2=udm8734.1.2 switch=n enabled=y phases=2 Linecode=1P_OH_AL_4/0_Zuzara_0_416_0_2_2

New Line.l(r:p1ulv29852-udt3980lv) Units=km Length=0.018927 bus1=udt3980lv.1.2 bus2=p1ulv29852.1.2 switch=n enabled=y phases=2 Linecode=1P_UG_AL_1/0_Brenau_0_416_0_2_2

New Line.l(r:p1ulv42583-udt3980lv) Units=km Length=0.0124292 bus1=udt3980lv.1.2 bus2=p1ulv42583.1.2 switch=n enabled=y phases=2 Linecode=1P_UG_AL_1/0_Brenau_0_416_0_2_2

New Line.l(r:p1ulv33449-udm15530) Units=km Length=0.013639400000000001 bus1=udm15530.1.2 bus2=p1ulv33449.1.2 switch=n enabled=y phases=2 Linecode=1P_UG_AL_1/0_Brenau_0_416_0_2_2

New Line.l(r:p1ulv8805-udm15528) Units=km Length=0.00779162 bus1=udm15528.1.2 bus2=p1ulv8805.1.2 switch=n enabled=y phases=2 Linecode=1P_UG_AL_1/0_Brenau_0_416_0_2_2

New Line.l(r:p1ulv37463-udm15531) Units=km Length=0.015151100000000002 bus1=udm15531.1.2 bus2=p1ulv37463.1.2 switch=n enabled=y phases=2 Linecode=1P_UG_AL_1/0_Brenau_0_416_0_2_2

New Line.l(r:udm15528-udm15531) Units=km Length=0.00995032 bus1=udm15528.1.2 bus2=udm15531.1.2 switch=n enabled=y phases=2 Linecode=1P_UG_AL_1/0_Brenau_0_416_0_2_2

New Line.l(r:udm15528-udm15530) Units=km Length=0.00995025 bus1=udm15530.1.2 bus2=udm15528.1.2 switch=n enabled=y phases=2 Linecode=1P_UG_AL_1/0_Brenau_0_416_0_2_2

New Line.l(r:udm15530-udt3980lv) Units=km Length=0.00995025 bus1=udt3980lv.1.2 bus2=udm15530.1.2 switch=n enabled=y phases=2 Linecode=1P_UG_AL_1/0_Brenau_0_416_0_2_2

New Line.l(r:p1ulv44432-udm15535) Units=km Length=0.0128705 bus1=udm15535.1.2 bus2=p1ulv44432.1.2 switch=n enabled=y phases=2 Linecode=1P_UG_AL_1/0_Brenau_0_416_0_2_2

New Line.l(r:p1ulv40756-udm15532) Units=km Length=0.013482600000000003 bus1=udm15532.1.2 bus2=p1ulv40756.1.2 switch=n enabled=y phases=2 Linecode=1P_UG_AL_1/0_Brenau_0_416_0_2_2

New Line.l(r:p1ulv42199-udm15533) Units=km Length=0.0134548 bus1=udm15533.1.2 bus2=p1ulv42199.1.2 switch=n enabled=y phases=2 Linecode=1P_UG_AL_1/0_Brenau_0_416_0_2_2

New Line.l(r:p1ulv50747-udm15533) Units=km Length=0.0120554 bus1=udm15533.1.2 bus2=p1ulv50747.1.2 switch=n enabled=y phases=2 Linecode=1P_UG_AL_1/0_Brenau_0_416_0_2_2

New Line.l(r:udm15532-udm15533) Units=km Length=0.00995032 bus1=udm15532.1.2 bus2=udm15533.1.2 switch=n enabled=y phases=2 Linecode=1P_UG_AL_2/0_Converse_0_416_0_2_2

New Line.l(r:udm15532-udm15535) Units=km Length=0.00995025 bus1=udm15535.1.2 bus2=udm15532.1.2 switch=n enabled=y phases=2 Linecode=1P_UG_AL_4/0_Sweetbriar_0_416_0_2_2

New Line.l(r:udm15535-udt3980lv) Units=km Length=0.00995032 bus1=udt3980lv.1.2 bus2=udm15535.1.2 switch=n enabled=y phases=2 Linecode=1P_UG_AL_4/0_Sweetbriar_0_416_0_2_2

New Line.l(r:p1ulv9125-udt4151lv) Units=km Length=0.0102938 bus1=udt4151lv.1.2 bus2=p1ulv9125.1.2 switch=n enabled=y phases=2 Linecode=1P_OH_AL_2/0_Rucina_0_416_0_2_2

New Line.l(r:p1ulv9126-udt4152lv) Units=km Length=0.00980009 bus1=udt4152lv.1.2 bus2=p1ulv9126.1.2 switch=n enabled=y phases=2 Linecode=1P_OH_AL_2/0_Rucina_0_416_0_2_0_2

New Line.l(r:p1ulv9128-udt4153lv) Units=km Length=0.00990517 bus1=udt4153lv.1.2 bus2=p1ulv9128.1.2 switch=n enabled=y phases=2 Linecode=1P_OH_AL_2/0_Rucina_0_416_0_2_2

New Line.l(r:p1ulv9135-udt4158lv) Units=km Length=0.00969665 bus1=udt4158lv.1.2 bus2=p1ulv9135.1.2 switch=n enabled=y phases=2 Linecode=1P_OH_AL_2/0_Rucina_0_416_0_2_2

New Line.l(r:p1ulv9138-udt4160lv) Units=km Length=0.0124712 bus1=udt4160lv.1.2 bus2=p1ulv9138.1.2 switch=n enabled=y phases=2 Linecode=1P_OH_AL_2/0_Rucina_0_416_0_2_2

New Line.l(r:p1ulv9140-udt4161lv) Units=km Length=0.0124946 bus1=udt4161lv.1.2 bus2=p1ulv9140.1.2 switch=n enabled=y phases=2 Linecode=1P_OH_AL_2/0_Rucina_0_416_0_2_2

New Line.l(r:p1ulv9141-udm16047) Units=km Length=0.0123759 bus1=udm16047.1.2 bus2=p1ulv9141.1.2 switch=n enabled=y phases=2 Linecode=1P_OH_AL_2/0_Rucina_0_416_0_2_2

New Line.l(r:udm16047-udt4161lv) Units=km Length=0.0150996 bus1=udt4161lv.1.2 bus2=udm16047.1.2 switch=n enabled=y phases=2 Linecode=1P_OH_AL_2/0_Rucina_0_416_0_2_2

New Line.l(r:p1ulv9145-udt4164lv) Units=km Length=0.00969487 bus1=udt4164lv.1.2 bus2=p1ulv9145.1.2 switch=n enabled=y phases=2 Linecode=1P_OH_AL_2/0_Rucina_0_416_0_2_2

New Line.l(r:p1ulv9148-udt4166lv) Units=km Length=0.0095728 bus1=udt4166lv.1.2 bus2=p1ulv9148.1.2 switch=n enabled=y phases=2 Linecode=1P_OH_AL_2/0_Rucina_0_416_0_2_2

New Line.l(r:p1ulv9149-udm16055) Units=km Length=0.00961325 bus1=udm16055.1.2 bus2=p1ulv9149.1.2 switch=n enabled=y phases=2 Linecode=1P_OH_AL_2/0_Rucina_0_416_0_2_2

New Line.l(r:udm16055-udt4166lv) Units=km Length=0.0103558 bus1=udt4166lv.1.2 bus2=udm16055.1.2 switch=n enabled=y phases=2 Linecode=1P_OH_AL_2/0_Rucina_0_416_0_2_2

New Line.l(r:p1ulv40995-udm16056) Units=km Length=0.0114151 bus1=udm16056.1.2 bus2=p1ulv40995.1.2 switch=n enabled=y phases=2 Linecode=1P_UG_AL_2/0_Converse_0_416_0_2_2

New Line.l(r:udm16056-udt4166lv) Units=km Length=0.107989 bus1=udt4166lv.1.2 bus2=udm16056.1.2 switch=n enabled=y phases=2 Linecode=1P_OH_AL_4/0_Zuzara_0_416_0_2_2

New Line.l(r:p1ulv9150-udt4167lv) Units=km Length=0.0120787 bus1=udt4167lv.1.2 bus2=p1ulv9150.1.2 switch=n enabled=y phases=2 Linecode=1P_OH_AL_2/0_Rucina_0_416_0_2_2

New Line.l(r:p1ulv9165-udt4175lv) Units=km Length=0.00888897 bus1=udt4175lv.1.2 bus2=p1ulv9165.1.2 switch=n enabled=y phases=2 Linecode=1P_OH_AL_2/0_Rucina_0_416_0_2_2

New Line.l(r:p1ulv9167-udt4176lv) Units=km Length=0.00819883 bus1=udt4176lv.1.2 bus2=p1ulv9167.1.2 switch=n enabled=y phases=2 Linecode=1P_OH_AL_2/0_Rucina_0_416_0_2_2

New Line.l(r:p1ulv9166-udm16075) Units=km Length=0.0086942 bus1=udm16075.1.2 bus2=p1ulv9166.1.2 switch=n enabled=y phases=2 Linecode=1P_OH_AL_2/0_Rucina_0_416_0_2_2

New Line.l(r:udm16075-udt4176lv) Units=km Length=0.0180533 bus1=udt4176lv.1.2 bus2=udm16075.1.2 switch=n enabled=y phases=2 Linecode=1P_OH_AL_2/0_Rucina_0_416_0_2_2

New Line.l(r:p1ulv9169-udt4177lv) Units=km Length=0.00982518 bus1=udt4177lv.1.2 bus2=p1ulv9169.1.2 switch=n enabled=y phases=2 Linecode=1P_UG_AL_1/0_Brenau_0_416_0_2_2

New Line.l(r:p1ulv9170-udm16078) Units=km Length=0.00974641 bus1=udm16078.1.2 bus2=p1ulv9170.1.2 switch=n enabled=y phases=2 Linecode=1P_UG_AL_1/0_Brenau_0_416_0_2_2

New Line.l(r:p1ulv9172-udm16079) Units=km Length=0.00971043 bus1=udm16079.1.2 bus2=p1ulv9172.1.2 switch=n enabled=y phases=2 Linecode=1P_UG_AL_1/0_Brenau_0_416_0_2_2

New Line.l(r:p1ulv9174-udm16080) Units=km Length=0.00854637 bus1=udm16080.1.2 bus2=p1ulv9174.1.2 switch=n enabled=y phases=2 Linecode=1P_UG_AL_1/0_Brenau_0_416_0_2_2

New Line.l(r:udm16079-udm16080) Units=km Length=0.0455167 bus1=udm16079.1.2 bus2=udm16080.1.2 switch=n enabled=y phases=2 Linecode=1P_UG_AL_1/0_Brenau_0_416_0_2_2

New Line.l(r:udm16078-udm16079) Units=km Length=0.009683230000000001 bus1=udm16078.1.2 bus2=udm16079.1.2 switch=n enabled=y phases=2 Linecode=1P_UG_AL_2/0_Converse_0_416_0_2_2

New Line.l(r:udm16078-udt4177lv) Units=km Length=0.00967298 bus1=udt4177lv.1.2 bus2=udm16078.1.2 switch=n enabled=y phases=2 Linecode=1P_UG_AL_4/0_Sweetbriar_0_416_0_2_2

New Line.l(r:p1ulv9176-udm16081) Units=km Length=0.009882800000000002 bus1=udm16081.1.2 bus2=p1ulv9176.1.2 switch=n enabled=y phases=2 Linecode=1P_UG_AL_1/0_Brenau_0_416_0_2_2

New Line.l(r:p1ulv9178-udm16082) Units=km Length=0.00999981 bus1=udm16082.1.2 bus2=p1ulv9178.1.2 switch=n enabled=y phases=2 Linecode=1P_UG_AL_1/0_Brenau_0_416_0_2_2

New Line.l(r:p1ulv38223-udm16083) Units=km Length=0.015594400000000001 bus1=udm16083.1.2 bus2=p1ulv38223.1.2 switch=n enabled=y phases=2 Linecode=1P_UG_AL_1/0_Brenau_0_416_0_2_2

New Line.l(r:udm16082-udm16083) Units=km Length=0.0193562 bus1=udm16082.1.2 bus2=udm16083.1.2 switch=n enabled=y phases=2 Linecode=1P_UG_AL_1/0_Brenau_0_416_0_2_2

New Line.l(r:udm16081-udm16082) Units=km Length=0.00967323 bus1=udm16081.1.2 bus2=udm16082.1.2 switch=n enabled=y phases=2 Linecode=1P_UG_AL_2/0_Converse_0_416_0_2_2

New Line.l(r:udm16081-udt4177lv) Units=km Length=0.009683230000000001 bus1=udt4177lv.1.2 bus2=udm16081.1.2 switch=n enabled=y phases=2 Linecode=1P_UG_AL_4/0_Sweetbriar_0_416_0_2_2

New Line.l(r:p1ulv19579-udt4930lv) Units=km Length=0.0302971 bus1=udt4930lv.1.2 bus2=p1ulv19579.1.2 switch=n enabled=y phases=2 Linecode=1P_OH_AL_4/0_Zuzara_0_416_0_2_2

New Line.l(r:p1ulv10825-udm18668) Units=km Length=0.0118176 bus1=udm18668.1.2 bus2=p1ulv10825.1.2 switch=n enabled=y phases=2 Linecode=1P_OH_AL_2/0_Rucina_0_416_0_2_2

New Line.l(r:udm18668-udt4930lv) Units=km Length=0.0133769 bus1=udt4930lv.1.2 bus2=udm18668.1.2 switch=n enabled=y phases=2 Linecode=1P_OH_AL_2/0_Rucina_0_416_0_2_2

New Line.l(r:p1ulv10826-udm18670) Units=km Length=0.00990245 bus1=udm18670.1.2 bus2=p1ulv10826.1.2 switch=n enabled=y phases=2 Linecode=1P_OH_AL_2/0_Rucina_0_416_0_2_2

New Line.l(r:udm18670-udt4931lv) Units=km Length=0.0159595 bus1=udt4931lv.1.2 bus2=udm18670.1.2 switch=n enabled=y phases=2 Linecode=1P_OH_AL_2/0_Rucina_0_416_0_2_2

New Line.l(r:p1ulv10829-udm18671) Units=km Length=0.0133465 bus1=udm18671.1.2 bus2=p1ulv10829.1.2 switch=n enabled=y phases=2 Linecode=1P_OH_AL_2/0_Rucina_0_416_0_2_2

New Line.l(r:udm18671-udt4931lv) Units=km Length=0.0191924 bus1=udt4931lv.1.2 bus2=udm18671.1.2 switch=n enabled=y phases=2 Linecode=1P_OH_AL_2/0_Rucina_0_416_0_2_2

New Line.l(r:p1ulv10833-udt4936lv) Units=km Length=0.0135677 bus1=udt4936lv.1.2 bus2=p1ulv10833.1.2 switch=n enabled=y phases=2 Linecode=1P_OH_AL_2/0_Rucina_0_416_0_2_2

New Line.l(r:p1ulv10834-udt4937lv) Units=km Length=0.010197 bus1=udt4937lv.1.2 bus2=p1ulv10834.1.2 switch=n enabled=y phases=2 Linecode=1P_OH_AL_2/0_Rucina_0_416_0_2_2

New Line.l(r:p1ulv10883-udt4961lv) Units=km Length=0.00778003 bus1=udt4961lv.1.2 bus2=p1ulv10883.1.2 switch=n enabled=y phases=2 Linecode=1P_UG_AL_1/0_Brenau_0_416_0_2_2

New Line.l(r:p1ulv10890-udt4963lv) Units=km Length=0.0128822 bus1=udt4963lv.1.2 bus2=p1ulv10890.1.2 switch=n enabled=y phases=2 Linecode=1P_OH_AL_2/0_Rucina_0_416_0_2_2

New Line.l(r:p1ulv14600-udt6930lv) Units=km Length=0.0103565 bus1=udt6930lv.1.2 bus2=p1ulv14600.1.2 switch=n enabled=y phases=2 Linecode=1P_OH_AL_2/0_Rucina_0_416_0_2_2

New Line.l(r:p1ulv19239-udm32000) Units=km Length=0.0333183 bus1=udm32000.1.2 bus2=p1ulv19239.1.2 switch=n enabled=y phases=2 Linecode=1P_OH_AL_4/0_Zuzara_0_416_0_2_2

New Line.l(r:p1ulv22927-udm32000) Units=km Length=0.0233187 bus1=udm32000.1.2 bus2=p1ulv22927.1.2 switch=n enabled=y phases=2 Linecode=1P_OH_AL_2/0_Rucina_0_416_0_2_2

New Line.l(r:p1ulv19240-udm32001) Units=km Length=0.0338753 bus1=udm32001.1.2 bus2=p1ulv19240.1.2 switch=n enabled=y phases=2 Linecode=1P_OH_AL_4/0_Zuzara_0_416_0_2_2

New Line.l(r:udm32000-udm32001) Units=km Length=0.0191844 bus1=udm32000.1.2 bus2=udm32001.1.2 switch=n enabled=y phases=2 Linecode=1P_OH_AL_2/0_Rucina_0_416_0_2_2

New Line.l(r:udm32000-udt9040lv) Units=km Length=0.0191844 bus1=udt9040lv.1.2 bus2=udm32000.1.2 switch=n enabled=y phases=2 Linecode=1P_OH_AL_2/0_Rucina_0_416_0_2_2

New Line.l(r:p1ulv29640-udm32003) Units=km Length=0.0325402 bus1=udm32003.1.2 bus2=p1ulv29640.1.2 switch=n enabled=y phases=2 Linecode=1P_OH_AL_4/0_Zuzara_0_416_0_2_2

New Line.l(r:p1ulv45825-udm32003) Units=km Length=0.0340353 bus1=udm32003.1.2 bus2=p1ulv45825.1.2 switch=n enabled=y phases=2 Linecode=1P_OH_AL_4/0_Zuzara_0_416_0_2_2

New Line.l(r:udm32003-udt9040lv) Units=km Length=0.0191745 bus1=udt9040lv.1.2 bus2=udm32003.1.2 switch=n enabled=y phases=2 Linecode=1P_OH_AL_2/0_Rucina_0_416_0_2_2

New Line.l(r:p1ulv27385-udt9041lv) Units=km Length=0.0485292 bus1=udt9041lv.1.2 bus2=p1ulv27385.1.2 switch=n enabled=y phases=2 Linecode=1P_OH_AL_4/0_Zuzara_0_416_0_2_2

New Line.l(r:p1ulv50909-udt9041lv) Units=km Length=0.0312193 bus1=udt9041lv.1.2 bus2=p1ulv50909.1.2 switch=n enabled=y phases=2 Linecode=1P_OH_AL_4/0_Zuzara_0_416_0_2_2

New Line.l(r:p1ulv19241-udm32005) Units=km Length=0.0364556 bus1=udm32005.1.2 bus2=p1ulv19241.1.2 switch=n enabled=y phases=2 Linecode=1P_OH_AL_4/0_Zuzara_0_416_0_2_2

New Line.l(r:p1ulv19242-udm32006) Units=km Length=0.0419854 bus1=udm32006.1.2 bus2=p1ulv19242.1.2 switch=n enabled=y phases=2 Linecode=1P_OH_AL_4/0_Zuzara_0_416_0_2_2

New Line.l(r:udm32005-udm32006) Units=km Length=0.0184118 bus1=udm32005.1.2 bus2=udm32006.1.2 switch=n enabled=y phases=2 Linecode=1P_OH_AL_2/0_Rucina_0_416_0_2_2

New Line.l(r:udm32005-udt9041lv) Units=km Length=0.0184211 bus1=udt9041lv.1.2 bus2=udm32005.1.2 switch=n enabled=y phases=2 Linecode=1P_OH_AL_2/0_Rucina_0_416_0_2_2

New Line.l(r:p1ulv34654-udm32008) Units=km Length=0.0131186 bus1=udm32008.1.2 bus2=p1ulv34654.1.2 switch=n enabled=y phases=2 Linecode=1P_OH_AL_2/0_Rucina_0_416_0_2_2

New Line.l(r:udm32008-udt9041lv) Units=km Length=0.0333704 bus1=udt9041lv.1.2 bus2=udm32008.1.2 switch=n enabled=y phases=2 Linecode=1P_OH_AL_4/0_Zuzara_0_416_0_2_2

New Line.l(r:p1ulv21379-udt9211lv) Units=km Length=0.0091218 bus1=udt9211lv.1.2 bus2=p1ulv21379.1.2 switch=n enabled=y phases=2 Linecode=1P_OH_AL_2/0_Rucina_0_416_0_2_2

New Line.l(r:p1ulv19571-udm32477) Units=km Length=0.0105437 bus1=udm32477.1.2 bus2=p1ulv19571.1.2 switch=n enabled=y phases=2 Linecode=1P_OH_AL_2/0_Rucina_0_416_0_2_2

New Line.l(r:udm32477-udt9211lv) Units=km Length=0.017983000000000002 bus1=udt9211lv.1.2 bus2=udm32477.1.2 switch=n enabled=y phases=2 Linecode=1P_OH_AL_2/0_Rucina_0_416_0_2_2

New Line.l(r:p1ulv19576-udt9213lv) Units=km Length=0.0107721 bus1=udt9213lv.1.2 bus2=p1ulv19576.1.2 switch=n enabled=y phases=2 Linecode=1P_OH_AL_2/0_Rucina_0_416_0_2_2
