New Load.load_p1ulv1390 conn=wye bus1=p1ulv1390.1.2.3 kV=0.48 Vminpu=0.8 Vmaxpu=1.2 model=1 kW=77.7208 kvar=25.545591601785386 Phases=3

New Load.load_p1ulv1392 conn=wye bus1=p1ulv1392.1.2 kV=0.2080002494301389 Vminpu=0.8 Vmaxpu=1.2 model=1 kW=14.2901 kvar=2.9017285663259846 Phases=2

New Load.load_p1ulv1393 conn=wye bus1=p1ulv1393.1.2.3 kV=0.48 Vminpu=0.8 Vmaxpu=1.2 model=1 kW=30.510300000000004 kvar=6.195380653541661 Phases=3

New Load.load_p1ulv1542 conn=wye bus1=p1ulv1542.1.2 kV=0.2080002494301389 Vminpu=0.8 Vmaxpu=1.2 model=1 kW=3.7500400000000003 kvar=0.7595136983594827 Phases=2

New Load.load_p1ulv1544 conn=wye bus1=p1ulv1544.1.2 kV=0.2080002494301389 Vminpu=0.8 Vmaxpu=1.2 model=1 kW=7.70008 kvar=1.559534361890509 Phases=2

New Load.load_p1ulv1546 conn=wye bus1=p1ulv1546.1.2 kV=0.2080002494301389 Vminpu=0.8 Vmaxpu=1.2 model=1 kW=4.13004 kvar=0.840798942398307 Phases=2

New Load.load_p1ulv1549 conn=wye bus1=p1ulv1549.1.2 kV=0.2080002494301389 Vminpu=0.8 Vmaxpu=1.2 model=1 kW=5.850060000000001 kvar=1.19096286257921 Phases=2

New Load.load_p1ulv1559 conn=wye bus1=p1ulv1559.1.2 kV=0.2080002494301389 Vminpu=0.8 Vmaxpu=1.2 model=1 kW=11.03 kvar=0.7204909600226704 Phases=2

New Load.load_p1ulv1567 conn=wye bus1=p1ulv1567.1.2 kV=0.2080002494301389 Vminpu=0.8 Vmaxpu=1.2 model=1 kW=3.87004 kvar=0.7898859035382418 Phases=2

New Load.load_p1ulv1570 conn=wye bus1=p1ulv1570.1.2 kV=0.2080002494301389 Vminpu=0.8 Vmaxpu=1.2 model=1 kW=4.14004 kvar=1.3592956687066866 Phases=2

New Load.load_p1ulv1571 conn=wye bus1=p1ulv1571.1.2 kV=0.2080002494301389 Vminpu=0.8 Vmaxpu=1.2 model=1 kW=14.7601 kvar=1.4704170131648537 Phases=2

New Load.load_p1ulv1573 conn=wye bus1=p1ulv1573.1.2.3 kV=0.48 Vminpu=0.8 Vmaxpu=1.2 model=1 kW=90.1509 kvar=18.305921008950055 Phases=3

New Load.load_p1ulv1574 conn=wye bus1=p1ulv1574.1.2.3 kV=0.48 Vminpu=0.8 Vmaxpu=1.2 model=1 kW=45.6605 kvar=9.271759973878952 Phases=3

New Load.load_p1ulv1575 conn=wye bus1=p1ulv1575.1.2.3 kV=0.48 Vminpu=0.8 Vmaxpu=1.2 model=1 kW=35.190400000000004 kvar=7.145715491174864 Phases=3

New Load.load_p1ulv1576 conn=wye bus1=p1ulv1576.1.2.3 kV=0.48 Vminpu=0.8 Vmaxpu=1.2 model=1 kW=85.67089999999999 kvar=17.396218209309723 Phases=3

New Load.load_p1ulv1577 conn=wye bus1=p1ulv1577.1.2 kV=0.2080002494301389 Vminpu=0.8 Vmaxpu=1.2 model=1 kW=15.310200000000002 kvar=3.108868706038733 Phases=2

New Load.load_p1ulv1578 conn=wye bus1=p1ulv1578.1.2.3 kV=0.48 Vminpu=0.8 Vmaxpu=1.2 model=1 kW=44.9604 kvar=14.777768842483757 Phases=3

New Load.load_p1ulv1579 conn=wye bus1=p1ulv1579.1.2.3 kV=0.48 Vminpu=0.8 Vmaxpu=1.2 model=1 kW=30.340299999999996 kvar=9.97237435635826 Phases=3

New Load.load_p1ulv1581 conn=wye bus1=p1ulv1581.1.2 kV=0.2080002494301389 Vminpu=0.8 Vmaxpu=1.2 model=1 kW=24.0601 kvar=1.839729740623536 Phases=2

New Load.load_p1ulv1582 conn=wye bus1=p1ulv1582.1.2 kV=0.2080002494301389 Vminpu=0.8 Vmaxpu=1.2 model=1 kW=8.39008 kvar=1.6992833917323356 Phases=2

New Load.load_p1ulv1583 conn=wye bus1=p1ulv1583.1.2 kV=0.2080002494301389 Vminpu=0.8 Vmaxpu=1.2 model=1 kW=13.760100000000001 kvar=2.7868994572848065 Phases=2

New Load.load_p1ulv1584 conn=wye bus1=p1ulv1584.1.2 kV=0.2080002494301389 Vminpu=0.8 Vmaxpu=1.2 model=1 kW=4.14004 kvar=1.3592956687066866 Phases=2

New Load.load_p1ulv1585 conn=wye bus1=p1ulv1585.1.2 kV=0.2080002494301389 Vminpu=0.8 Vmaxpu=1.2 model=1 kW=2.1200200000000002 kvar=0.4304884217173018 Phases=2

New Load.load_p1ulv1586 conn=wye bus1=p1ulv1586.1.2.3 kV=0.48 Vminpu=0.8 Vmaxpu=1.2 model=1 kW=25.170300000000005 kvar=8.273077532583539 Phases=3

New Load.load_p1ulv1587 conn=wye bus1=p1ulv1587.1.2.3 kV=0.48 Vminpu=0.8 Vmaxpu=1.2 model=1 kW=41.4404 kvar=8.41483212013739 Phases=3

New Load.load_p1ulv1588 conn=wye bus1=p1ulv1588.1.2.3 kV=0.48 Vminpu=0.8 Vmaxpu=1.2 model=1 kW=65.4607 kvar=21.515891603882007 Phases=3

New Load.load_p1ulv4803 conn=wye bus1=p1ulv4803.1.2.3 kV=0.48 Vminpu=0.8 Vmaxpu=1.2 model=1 kW=157.942 kvar=32.07149097785591 Phases=3

New Load.load_p1ulv4804 conn=wye bus1=p1ulv4804.1.2.3 kV=0.48 Vminpu=0.8 Vmaxpu=1.2 model=1 kW=40.28039999999999 kvar=8.179284073801947 Phases=3

New Load.load_p1ulv4805 conn=wye bus1=p1ulv4805.1.2.3 kV=0.48 Vminpu=0.8 Vmaxpu=1.2 model=1 kW=28.060299999999994 kvar=5.69788693498835 Phases=3

New Load.load_p1ulv4806 conn=wye bus1=p1ulv4806.1.2.3 kV=0.48 Vminpu=0.8 Vmaxpu=1.2 model=1 kW=46.4805 kvar=9.438268075598836 Phases=3

New Load.load_p1ulv4807 conn=wye bus1=p1ulv4807.1.2 kV=0.2080002494301389 Vminpu=0.8 Vmaxpu=1.2 model=1 kW=14.340100000000001 kvar=2.911881499357685 Phases=2

New Load.load_p1ulv4808 conn=wye bus1=p1ulv4808.1.2 kV=0.2080002494301389 Vminpu=0.8 Vmaxpu=1.2 model=1 kW=14.4701 kvar=2.938279125240106 Phases=2

New Load.load_p1umv7 conn=wye bus1=p1umv7.1.2.3 kV=12.47 Vminpu=0.8 Vmaxpu=1.2 model=1 kW=1141.0499999999997 kvar=231.70008471643058 Phases=3

New Load.load_p1ulv4853 conn=wye bus1=p1ulv4853.1.2.3 kV=0.48 Vminpu=0.8 Vmaxpu=1.2 model=1 kW=132.221 kvar=26.848619167688685 Phases=3

New Load.load_p1ulv8805 conn=wye bus1=p1ulv8805.1.2 kV=0.2080002494301389 Vminpu=0.8 Vmaxpu=1.2 model=1 kW=1.38001 kvar=0.28022298226153225 Phases=2

New Load.load_p1ulv8811 conn=wye bus1=p1ulv8811.1.2.3 kV=0.48 Vminpu=0.8 Vmaxpu=1.2 model=1 kW=114.021 kvar=23.1529515441498 Phases=3

New Load.load_p1ulv8817 conn=wye bus1=p1ulv8817.1.2.3 kV=0.48 Vminpu=0.8 Vmaxpu=1.2 model=1 kW=153.362 kvar=31.141482312152167 Phases=3

New Load.load_p1ulv8819 conn=wye bus1=p1ulv8819.1.2.3 kV=0.48 Vminpu=0.8 Vmaxpu=1.2 model=1 kW=57.9706 kvar=11.77143239214961 Phases=3

New Load.load_p1ulv9119 conn=wye bus1=p1ulv9119.1.2.3 kV=0.48 Vminpu=0.8 Vmaxpu=1.2 model=1 kW=142.80100000000002 kvar=28.996979797196445 Phases=3

New Load.load_p1ulv9121 conn=wye bus1=p1ulv9121.1.2.3 kV=0.48 Vminpu=0.8 Vmaxpu=1.2 model=1 kW=20.3002 kvar=4.122131422602414 Phases=3

New Load.load_p1ulv9122 conn=wye bus1=p1ulv9122.1.2.3 kV=0.48 Vminpu=0.8 Vmaxpu=1.2 model=1 kW=39.0004 kvar=7.9193689881904215 Phases=3

New Load.load_p1ulv9123 conn=wye bus1=p1ulv9123.1.2.3 kV=0.48 Vminpu=0.8 Vmaxpu=1.2 model=1 kW=35.190400000000004 kvar=7.145715491174864 Phases=3

New Load.load_p1ulv9124 conn=wye bus1=p1ulv9124.1.2.3 kV=0.48 Vminpu=0.8 Vmaxpu=1.2 model=1 kW=20.140199999999997 kvar=4.089642036900973 Phases=3

New Load.load_p1ulv9125 conn=wye bus1=p1ulv9125.1.2 kV=0.2080002494301389 Vminpu=0.8 Vmaxpu=1.2 model=1 kW=15.320200000000002 kvar=3.110899292645073 Phases=2

New Load.load_p1ulv9126 conn=wye bus1=p1ulv9126.1.2 kV=0.2080002494301389 Vminpu=0.8 Vmaxpu=1.2 model=1 kW=18.3502 kvar=3.7261670343661057 Phases=2

New Load.load_p1ulv9127 conn=wye bus1=p1ulv9126.1.2 kV=0.2080002494301389 Vminpu=0.8 Vmaxpu=1.2 model=1 kW=11.7301 kvar=2.381898395102934 Phases=2

New Load.load_p1ulv9128 conn=wye bus1=p1ulv9128.1.2 kV=0.2080002494301389 Vminpu=0.8 Vmaxpu=1.2 model=1 kW=15.4702 kvar=3.141358091740173 Phases=2

New Load.load_p1ulv9129 conn=wye bus1=p1ulv9129.1.2.3 kV=0.48 Vminpu=0.8 Vmaxpu=1.2 model=1 kW=32.830299999999994 kvar=6.666476746212551 Phases=3

New Load.load_p1ulv9130 conn=wye bus1=p1ulv9130.1.2.3 kV=0.48 Vminpu=0.8 Vmaxpu=1.2 model=1 kW=78.57080000000002 kvar=15.954481412942226 Phases=3

New Load.load_p1ulv9131 conn=wye bus1=p1ulv9131.1.2.3 kV=0.48 Vminpu=0.8 Vmaxpu=1.2 model=1 kW=34.880300000000005 kvar=7.08274700051226 Phases=3

New Load.load_p1ulv9132 conn=wye bus1=p1ulv9132.1.2.3 kV=0.48 Vminpu=0.8 Vmaxpu=1.2 model=1 kW=33.48030000000001 kvar=6.798464875624655 Phases=3

New Load.load_p1ulv9133 conn=wye bus1=p1ulv9133.1.2.3 kV=0.48 Vminpu=0.8 Vmaxpu=1.2 model=1 kW=31.660299999999996 kvar=6.428898113270765 Phases=3

New Load.load_p1ulv9134 conn=wye bus1=p1ulv9134.1.2.3 kV=0.48 Vminpu=0.8 Vmaxpu=1.2 model=1 kW=42.8804 kvar=8.707236591450359 Phases=3

New Load.load_p1ulv9135 conn=wye bus1=p1ulv9135.1.2 kV=0.2080002494301389 Vminpu=0.8 Vmaxpu=1.2 model=1 kW=15.9202 kvar=3.232734489025475 Phases=2

New Load.load_p1ulv9136 conn=wye bus1=p1ulv9136.1.2.3 kV=0.48 Vminpu=0.8 Vmaxpu=1.2 model=1 kW=23.0402 kvar=4.678512152739585 Phases=3

New Load.load_p1ulv9137 conn=wye bus1=p1ulv9137.1.2.3 kV=0.48 Vminpu=0.8 Vmaxpu=1.2 model=1 kW=23.4502 kvar=4.761766203599527 Phases=3

New Load.load_p1ulv9138 conn=wye bus1=p1ulv9138.1.2 kV=0.2080002494301389 Vminpu=0.8 Vmaxpu=1.2 model=1 kW=16.9602 kvar=3.4439154960848395 Phases=2

New Load.load_p1ulv9139 conn=wye bus1=p1ulv9139.1.2.3 kV=0.48 Vminpu=0.8 Vmaxpu=1.2 model=1 kW=21.0402 kvar=4.272394831471577 Phases=3

New Load.load_p1ulv9140 conn=wye bus1=p1ulv9140.1.2 kV=0.2080002494301389 Vminpu=0.8 Vmaxpu=1.2 model=1 kW=18.0302 kvar=3.661188262963224 Phases=2

New Load.load_p1ulv9141 conn=wye bus1=p1ulv9141.1.2 kV=0.2080002494301389 Vminpu=0.8 Vmaxpu=1.2 model=1 kW=17.6002 kvar=3.5738730388906026 Phases=2

New Load.load_p1ulv9142 conn=wye bus1=p1ulv9142.1.2.3 kV=0.48 Vminpu=0.8 Vmaxpu=1.2 model=1 kW=19.8102 kvar=4.0226326788917515 Phases=3

New Load.load_p1ulv9143 conn=wye bus1=p1ulv9143.1.2.3 kV=0.48 Vminpu=0.8 Vmaxpu=1.2 model=1 kW=36.0004 kvar=7.31019300628841 Phases=3

New Load.load_p1ulv9144 conn=wye bus1=p1ulv9144.1.2.3 kV=0.48 Vminpu=0.8 Vmaxpu=1.2 model=1 kW=33.6403 kvar=6.830954261326097 Phases=3

New Load.load_p1ulv9145 conn=wye bus1=p1ulv9145.1.2 kV=0.2080002494301389 Vminpu=0.8 Vmaxpu=1.2 model=1 kW=11.3701 kvar=2.3087972772746923 Phases=2

New Load.load_p1ulv9146 conn=wye bus1=p1ulv9146.1.2.3 kV=0.48 Vminpu=0.8 Vmaxpu=1.2 model=1 kW=47.9705 kvar=9.740825479943505 Phases=3

New Load.load_p1ulv9147 conn=wye bus1=p1ulv9147.1.2.3 kV=0.48 Vminpu=0.8 Vmaxpu=1.2 model=1 kW=36.970400000000005 kvar=7.507159907103393 Phases=3

New Load.load_p1ulv9148 conn=wye bus1=p1ulv9148.1.2 kV=0.2080002494301389 Vminpu=0.8 Vmaxpu=1.2 model=1 kW=12.4801 kvar=2.5276548801869256 Phases=2

New Load.load_p1ulv9149 conn=wye bus1=p1ulv9149.1.2 kV=0.2080002494301389 Vminpu=0.8 Vmaxpu=1.2 model=1 kW=13.8901 kvar=2.8205051020723833 Phases=2

New Load.load_p1ulv9150 conn=wye bus1=p1ulv9150.1.2 kV=0.2080002494301389 Vminpu=0.8 Vmaxpu=1.2 model=1 kW=14.7001 kvar=2.9926655754301055 Phases=2

New Load.load_p1ulv9161 conn=wye bus1=p1ulv9161.1.2.3 kV=0.48 Vminpu=0.8 Vmaxpu=1.2 model=1 kW=48.06049999999999 kvar=9.759100759400562 Phases=3

New Load.load_p1ulv9162 conn=wye bus1=p1ulv9162.1.2.3 kV=0.48 Vminpu=0.8 Vmaxpu=1.2 model=1 kW=81.3908 kvar=16.527106835930113 Phases=3

New Load.load_p1ulv9163 conn=wye bus1=p1ulv9163.1.2.3 kV=0.48 Vminpu=0.8 Vmaxpu=1.2 model=1 kW=56.8006 kvar=11.533853759207823 Phases=3

New Load.load_p1ulv9164 conn=wye bus1=p1ulv9164.1.2.3 kV=0.48 Vminpu=0.8 Vmaxpu=1.2 model=1 kW=29.880299999999995 kvar=6.067453697342238 Phases=3

New Load.load_p1ulv9165 conn=wye bus1=p1ulv9165.1.2 kV=0.2080002494301389 Vminpu=0.8 Vmaxpu=1.2 model=1 kW=6.72007 kvar=1.3610482072016854 Phases=2

New Load.load_p1ulv9166 conn=wye bus1=p1ulv9166.1.2 kV=0.2080002494301389 Vminpu=0.8 Vmaxpu=1.2 model=1 kW=10.7401 kvar=2.1808703210752696 Phases=2

New Load.load_p1ulv9167 conn=wye bus1=p1ulv9167.1.2 kV=0.2080002494301389 Vminpu=0.8 Vmaxpu=1.2 model=1 kW=7.240070000000001 kvar=1.4701589170964355 Phases=2

New Load.load_p1ulv9168 conn=wye bus1=p1ulv9167.1.2 kV=0.2080002494301389 Vminpu=0.8 Vmaxpu=1.2 model=1 kW=2.61003 kvar=0.5299891960145702 Phases=2

New Load.load_p1ulv9169 conn=wye bus1=p1ulv9169.1.2 kV=0.2080002494301389 Vminpu=0.8 Vmaxpu=1.2 model=1 kW=2.81003 kvar=0.570600928141371 Phases=2

New Load.load_p1ulv9170 conn=wye bus1=p1ulv9170.1.2 kV=0.2080002494301389 Vminpu=0.8 Vmaxpu=1.2 model=1 kW=2.94003 kvar=0.6000682817178988 Phases=2

New Load.load_p1ulv9171 conn=wye bus1=p1ulv9170.1.2 kV=0.2080002494301389 Vminpu=0.8 Vmaxpu=1.2 model=1 kW=2.75003 kvar=0.5598547025122315 Phases=2

New Load.load_p1ulv9172 conn=wye bus1=p1ulv9172.1.2 kV=0.2080002494301389 Vminpu=0.8 Vmaxpu=1.2 model=1 kW=2.95003 kvar=0.6005709639720869 Phases=2

New Load.load_p1ulv9173 conn=wye bus1=p1ulv9172.1.2 kV=0.2080002494301389 Vminpu=0.8 Vmaxpu=1.2 model=1 kW=2.48002 kvar=0.499683245129122 Phases=2

New Load.load_p1ulv9174 conn=wye bus1=p1ulv9174.1.2 kV=0.2080002494301389 Vminpu=0.8 Vmaxpu=1.2 model=1 kW=3.2600300000000004 kvar=0.6602696083409414 Phases=2

New Load.load_p1ulv9175 conn=wye bus1=p1ulv9169.1.2 kV=0.2080002494301389 Vminpu=0.8 Vmaxpu=1.2 model=1 kW=2.83003 kvar=0.5702045040817287 Phases=2

New Load.load_p1ulv9176 conn=wye bus1=p1ulv9176.1.2 kV=0.2080002494301389 Vminpu=0.8 Vmaxpu=1.2 model=1 kW=2.84003 kvar=0.5796580042133189 Phases=2

New Load.load_p1ulv9177 conn=wye bus1=p1ulv9176.1.2 kV=0.2080002494301389 Vminpu=0.8 Vmaxpu=1.2 model=1 kW=2.72003 kvar=0.5494726990544365 Phases=2

New Load.load_p1ulv9178 conn=wye bus1=p1ulv9178.1.2 kV=0.2080002494301389 Vminpu=0.8 Vmaxpu=1.2 model=1 kW=2.96003 kvar=0.5995091605836256 Phases=2

New Load.load_p1ulv9179 conn=wye bus1=p1ulv9179.1.2.3 kV=0.48 Vminpu=0.8 Vmaxpu=1.2 model=1 kW=131.841 kvar=26.77145687664776 Phases=3

New Load.load_p1ulv9180 conn=wye bus1=p1ulv9180.1.2.3 kV=0.48 Vminpu=0.8 Vmaxpu=1.2 model=1 kW=23.9002 kvar=4.85314260088483 Phases=3

New Load.load_p1ulv10825 conn=wye bus1=p1ulv10825.1.2 kV=0.2080002494301389 Vminpu=0.8 Vmaxpu=1.2 model=1 kW=10.0601 kvar=2.0375206016112446 Phases=2

New Load.load_p1ulv10826 conn=wye bus1=p1ulv10826.1.2 kV=0.2080002494301389 Vminpu=0.8 Vmaxpu=1.2 model=1 kW=15.8402 kvar=3.2164897961747543 Phases=2

New Load.load_p1ulv10827 conn=wye bus1=p1ulv10826.1.2 kV=0.2080002494301389 Vminpu=0.8 Vmaxpu=1.2 model=1 kW=2.43002 kvar=0.48960906739811333 Phases=2

New Load.load_p1ulv10828 conn=wye bus1=p1ulv10828.1.2.3 kV=0.48 Vminpu=0.8 Vmaxpu=1.2 model=1 kW=22.4102 kvar=4.550585196540164 Phases=3

New Load.load_p1ulv10829 conn=wye bus1=p1ulv10829.1.2 kV=0.2080002494301389 Vminpu=0.8 Vmaxpu=1.2 model=1 kW=4.14004 kvar=1.3592956687066866 Phases=2

New Load.load_p1ulv10830 conn=wye bus1=p1ulv10830.1.2.3 kV=0.48 Vminpu=0.8 Vmaxpu=1.2 model=1 kW=35.39039999999999 kvar=7.1863272233016655 Phases=3

New Load.load_p1ulv10831 conn=wye bus1=p1ulv10831.1.2.3 kV=0.48 Vminpu=0.8 Vmaxpu=1.2 model=1 kW=57.52060000000001 kvar=11.68005599486431 Phases=3

New Load.load_p1ulv10832 conn=wye bus1=p1ulv10832.1.2.3 kV=0.48 Vminpu=0.8 Vmaxpu=1.2 model=1 kW=55.67060000000001 kvar=11.304397472691402 Phases=3

New Load.load_p1ulv10833 conn=wye bus1=p1ulv10833.1.2 kV=0.2080002494301389 Vminpu=0.8 Vmaxpu=1.2 model=1 kW=10.3701 kvar=2.1111585148242353 Phases=2

New Load.load_p1ulv10834 conn=wye bus1=p1ulv10834.1.2 kV=0.2080002494301389 Vminpu=0.8 Vmaxpu=1.2 model=1 kW=10.2901 kvar=2.0894939237899677 Phases=2

New Load.load_p1ulv10835 conn=wye bus1=p1ulv10835.1.2.3 kV=0.48 Vminpu=0.8 Vmaxpu=1.2 model=1 kW=52.7905 kvar=10.719568224199403 Phases=3

New Load.load_p1ulv10836 conn=wye bus1=p1ulv10836.1.2.3 kV=0.48 Vminpu=0.8 Vmaxpu=1.2 model=1 kW=20.4702 kvar=4.1566513949101935 Phases=3

New Load.load_p1ulv10883 conn=wye bus1=p1ulv10883.1.2 kV=0.2080002494301389 Vminpu=0.8 Vmaxpu=1.2 model=1 kW=2.28002 kvar=0.46058636974522216 Phases=2

New Load.load_p1ulv10884 conn=wye bus1=p1ulv10884.1.2.3 kV=0.48 Vminpu=0.8 Vmaxpu=1.2 model=1 kW=41.5204 kvar=8.431076812988112 Phases=3

New Load.load_p1ulv10885 conn=wye bus1=p1ulv10885.1.2.3 kV=0.48 Vminpu=0.8 Vmaxpu=1.2 model=1 kW=46.6105 kvar=9.464665701481257 Phases=3

New Load.load_p1ulv10886 conn=wye bus1=p1ulv10886.1.2.3 kV=0.48 Vminpu=0.8 Vmaxpu=1.2 model=1 kW=36.0404 kvar=7.318315352713768 Phases=3

New Load.load_p1ulv10887 conn=wye bus1=p1ulv10886.1.2.3 kV=0.48 Vminpu=0.8 Vmaxpu=1.2 model=1 kW=46.3805 kvar=9.417962209535435 Phases=3

New Load.load_p1ulv10888 conn=wye bus1=p1ulv10888.1.2.3 kV=0.48 Vminpu=0.8 Vmaxpu=1.2 model=1 kW=36.2704 kvar=7.365018844659588 Phases=3

New Load.load_p1umv21 conn=wye bus1=p1umv21.1.2.3 kV=12.47 Vminpu=0.8 Vmaxpu=1.2 model=1 kW=1305.77 kvar=265.1479072960638 Phases=3

New Load.load_p1ulv10889 conn=wye bus1=p1ulv10889.1.2.3 kV=0.48 Vminpu=0.8 Vmaxpu=1.2 model=1 kW=135.451 kvar=27.50449864153651 Phases=3

New Load.load_p1ulv10890 conn=wye bus1=p1ulv10890.1.2 kV=0.2080002494301389 Vminpu=0.8 Vmaxpu=1.2 model=1 kW=9.49009 kvar=1.932004928587798 Phases=2

New Load.load_p1ulv10891 conn=wye bus1=p1ulv10891.1.2.3 kV=0.48 Vminpu=0.8 Vmaxpu=1.2 model=1 kW=131.77100000000002 kvar=26.757242770403373 Phases=3

New Load.load_p1ulv10892 conn=wye bus1=p1ulv10892.1.2.3 kV=0.48 Vminpu=0.8 Vmaxpu=1.2 model=1 kW=27.9703 kvar=5.679611655531291 Phases=3

New Load.load_p1ulv11252 conn=wye bus1=p1ulv11252.1.2.3 kV=0.48 Vminpu=0.8 Vmaxpu=1.2 model=1 kW=22.620200000000004 kvar=4.593227515273305 Phases=3

New Load.load_p1ulv14600 conn=wye bus1=p1ulv14600.1.2 kV=0.2080002494301389 Vminpu=0.8 Vmaxpu=1.2 model=1 kW=18.1602 kvar=5.9689690868691905 Phases=2

New Load.load_p1ulv19239 conn=wye bus1=p1ulv19239.1.2 kV=0.2080002494301389 Vminpu=0.8 Vmaxpu=1.2 model=1 kW=5.04005 kvar=1.6494194050947422 Phases=2

New Load.load_p1ulv19240 conn=wye bus1=p1ulv19240.1.2 kV=0.2080002494301389 Vminpu=0.8 Vmaxpu=1.2 model=1 kW=4.75005 kvar=1.5595797120656316 Phases=2

New Load.load_p1ulv19241 conn=wye bus1=p1ulv19241.1.2 kV=0.2080002494301389 Vminpu=0.8 Vmaxpu=1.2 model=1 kW=4.14004 kvar=1.3592956687066866 Phases=2

New Load.load_p1ulv19242 conn=wye bus1=p1ulv19242.1.2 kV=0.2080002494301389 Vminpu=0.8 Vmaxpu=1.2 model=1 kW=4.14004 kvar=1.3592956687066866 Phases=2

New Load.load_p1ulv19570 conn=wye bus1=p1ulv19570.1.2.3 kV=0.48 Vminpu=0.8 Vmaxpu=1.2 model=1 kW=21.3002 kvar=4.325190083236418 Phases=3

New Load.load_p1ulv19571 conn=wye bus1=p1ulv19571.1.2 kV=0.2080002494301389 Vminpu=0.8 Vmaxpu=1.2 model=1 kW=4.4900400000000005 kvar=0.9093894694941951 Phases=2

New Load.load_p1ulv19572 conn=wye bus1=p1ulv19571.1.2 kV=0.2080002494301389 Vminpu=0.8 Vmaxpu=1.2 model=1 kW=7.79008 kvar=1.581843211031744 Phases=2

New Load.load_p1ulv19573 conn=wye bus1=p1ulv19573.1.2 kV=0.2080002494301389 Vminpu=0.8 Vmaxpu=1.2 model=1 kW=5.87006 kvar=1.1888915798743651 Phases=2

New Load.load_p1ulv19574 conn=wye bus1=p1ulv19574.1.2.3 kV=0.48 Vminpu=0.8 Vmaxpu=1.2 model=1 kW=28.110299999999995 kvar=5.70803986802005 Phases=3

New Load.load_p1ulv19575 conn=wye bus1=p1ulv19575.1.2 kV=0.2080002494301389 Vminpu=0.8 Vmaxpu=1.2 model=1 kW=8.55009 kvar=1.7406384997264774 Phases=2

New Load.load_p1ulv19576 conn=wye bus1=p1ulv19576.1.2 kV=0.2080002494301389 Vminpu=0.8 Vmaxpu=1.2 model=1 kW=4.04004 kvar=0.8203651113078028 Phases=2

New Load.load_p1ulv19577 conn=wye bus1=p1ulv19576.1.2 kV=0.2080002494301389 Vminpu=0.8 Vmaxpu=1.2 model=1 kW=11.3601 kvar=2.3127040090505195 Phases=2

New Load.load_p1ulv19578 conn=wye bus1=p1ulv19578.1.2.3 kV=0.48 Vminpu=0.8 Vmaxpu=1.2 model=1 kW=43.180400000000006 kvar=8.768154189640558 Phases=3

New Load.load_p1ulv19579 conn=wye bus1=p1ulv19579.1.2 kV=0.2080002494301389 Vminpu=0.8 Vmaxpu=1.2 model=1 kW=12.9101 kvar=2.621507614651059 Phases=2

New Load.load_p1ulv19580 conn=wye bus1=p1ulv19575.1.2 kV=0.2080002494301389 Vminpu=0.8 Vmaxpu=1.2 model=1 kW=10.4101 kvar=2.1084077906614467 Phases=2

New Load.load_p1ulv19581 conn=wye bus1=p1ulv19581.1.2 kV=0.2080002494301389 Vminpu=0.8 Vmaxpu=1.2 model=1 kW=8.94009 kvar=1.8200352095731958 Phases=2

New Load.load_p1ulv19582 conn=wye bus1=p1ulv19582.1.2 kV=0.2080002494301389 Vminpu=0.8 Vmaxpu=1.2 model=1 kW=8.53009 kvar=1.7321086504875136 Phases=2

New Load.load_p1ulv19583 conn=wye bus1=p1ulv19583.1.2 kV=0.2080002494301389 Vminpu=0.8 Vmaxpu=1.2 model=1 kW=3.33003 kvar=0.6796683639857601 Phases=2

New Load.load_p1ulv19584 conn=wye bus1=p1ulv19584.1.2 kV=0.2080002494301389 Vminpu=0.8 Vmaxpu=1.2 model=1 kW=3.34003 kvar=0.679967673818805 Phases=2

New Load.load_p1ulv19585 conn=wye bus1=p1ulv19585.1.2 kV=0.2080002494301389 Vminpu=0.8 Vmaxpu=1.2 model=1 kW=3.65004 kvar=0.7392602157737106 Phases=2

New Load.load_p1ulv19586 conn=wye bus1=p1ulv19586.1.2 kV=0.2080002494301389 Vminpu=0.8 Vmaxpu=1.2 model=1 kW=3.33003 kvar=0.6796683639857601 Phases=2

New Load.load_p1ulv19587 conn=wye bus1=p1ulv19587.1.2 kV=0.2080002494301389 Vminpu=0.8 Vmaxpu=1.2 model=1 kW=3.33003 kvar=0.6796683639857601 Phases=2

New Load.load_p1ulv19588 conn=wye bus1=p1ulv19588.1.2 kV=0.2080002494301389 Vminpu=0.8 Vmaxpu=1.2 model=1 kW=3.38003 kvar=0.6898735027380501 Phases=2

New Load.load_p1ulv19589 conn=wye bus1=p1ulv19589.1.2 kV=0.2080002494301389 Vminpu=0.8 Vmaxpu=1.2 model=1 kW=2.79003 kvar=0.569452865461029 Phases=2

New Load.load_p1ulv19590 conn=wye bus1=p1ulv19590.1.2 kV=0.2080002494301389 Vminpu=0.8 Vmaxpu=1.2 model=1 kW=2.96003 kvar=0.5995091605836256 Phases=2

New Load.load_p1ulv19591 conn=wye bus1=p1ulv19591.1.2 kV=0.2080002494301389 Vminpu=0.8 Vmaxpu=1.2 model=1 kW=2.98003 kvar=0.6097828960881785 Phases=2

New Load.load_p1ulv19592 conn=wye bus1=p1ulv19592.1.2 kV=0.2080002494301389 Vminpu=0.8 Vmaxpu=1.2 model=1 kW=2.59003 kvar=0.5299798976370255 Phases=2

New Load.load_p1ulv19593 conn=wye bus1=p1ulv19593.1.2 kV=0.2080002494301389 Vminpu=0.8 Vmaxpu=1.2 model=1 kW=2.56003 kvar=0.5198362629828699 Phases=2

New Load.load_p1ulv19594 conn=wye bus1=p1ulv19594.1.2 kV=0.2080002494301389 Vminpu=0.8 Vmaxpu=1.2 model=1 kW=2.77003 kvar=0.5595731887375364 Phases=2

New Load.load_p1ulv19595 conn=wye bus1=p1ulv19594.1.2 kV=0.2080002494301389 Vminpu=0.8 Vmaxpu=1.2 model=1 kW=2.85003 kvar=0.5802128332421591 Phases=2

New Load.load_p1ulv19596 conn=wye bus1=p1ulv19596.1.2 kV=0.2080002494301389 Vminpu=0.8 Vmaxpu=1.2 model=1 kW=2.85003 kvar=0.5802128332421591 Phases=2

New Load.load_p1ulv19597 conn=wye bus1=p1ulv19597.1.2 kV=0.2080002494301389 Vminpu=0.8 Vmaxpu=1.2 model=1 kW=3.0100300000000004 kvar=0.6096359018765115 Phases=2

New Load.load_p1ulv19598 conn=wye bus1=p1ulv19598.1.2 kV=0.2080002494301389 Vminpu=0.8 Vmaxpu=1.2 model=1 kW=1.38001 kvar=0.28022298226153225 Phases=2

New Load.load_p1ulv19599 conn=wye bus1=p1ulv19599.1.2 kV=0.2080002494301389 Vminpu=0.8 Vmaxpu=1.2 model=1 kW=1.38001 kvar=0.28022298226153225 Phases=2

New Load.load_p1ulv19600 conn=wye bus1=p1ulv19600.1.2 kV=0.2080002494301389 Vminpu=0.8 Vmaxpu=1.2 model=1 kW=1.54002 kvar=0.31028870378615914 Phases=2

New Load.load_p1ulv19601 conn=wye bus1=p1ulv19601.1.2 kV=0.2080002494301389 Vminpu=0.8 Vmaxpu=1.2 model=1 kW=1.38001 kvar=0.28022298226153225 Phases=2

New Load.load_p1ulv19602 conn=wye bus1=p1ulv19602.1.2 kV=0.2080002494301389 Vminpu=0.8 Vmaxpu=1.2 model=1 kW=1.38001 kvar=0.28022298226153225 Phases=2

New Load.load_p1ulv19603 conn=wye bus1=p1ulv19603.1.2 kV=0.2080002494301389 Vminpu=0.8 Vmaxpu=1.2 model=1 kW=1.38001 kvar=0.28022298226153225 Phases=2

New Load.load_p1ulv19604 conn=wye bus1=p1ulv19604.1.2 kV=0.2080002494301389 Vminpu=0.8 Vmaxpu=1.2 model=1 kW=6.77007 kvar=1.3711749484945712 Phases=2

New Load.load_p1ulv19605 conn=wye bus1=p1ulv19605.1.2 kV=0.2080002494301389 Vminpu=0.8 Vmaxpu=1.2 model=1 kW=2.72003 kvar=0.5494726990544365 Phases=2

New Load.load_p1ulv19606 conn=wye bus1=p1ulv19606.1.2 kV=0.2080002494301389 Vminpu=0.8 Vmaxpu=1.2 model=1 kW=2.63003 kvar=0.5299077931576943 Phases=2

New Load.load_p1ulv19607 conn=wye bus1=p1ulv19607.1.2 kV=0.2080002494301389 Vminpu=0.8 Vmaxpu=1.2 model=1 kW=2.69003 kvar=0.5504422049321929 Phases=2

New Load.load_p1ulv19608 conn=wye bus1=p1ulv19608.1.2 kV=0.2080002494301389 Vminpu=0.8 Vmaxpu=1.2 model=1 kW=2.5500300000000005 kvar=0.5204681994500374 Phases=2

New Load.load_p1ulv19609 conn=wye bus1=p1ulv19608.1.2 kV=0.2080002494301389 Vminpu=0.8 Vmaxpu=1.2 model=1 kW=2.57003 kvar=0.520520578499115 Phases=2

New Load.load_p1ulv19610 conn=wye bus1=p1ulv19610.1.2 kV=0.2080002494301389 Vminpu=0.8 Vmaxpu=1.2 model=1 kW=2.58003 kvar=0.5198336154266855 Phases=2

New Load.load_p1ulv19611 conn=wye bus1=p1ulv19611.1.2 kV=0.2080002494301389 Vminpu=0.8 Vmaxpu=1.2 model=1 kW=2.77003 kvar=0.5595731887375364 Phases=2

New Load.load_p1ulv19612 conn=wye bus1=p1ulv19612.1.2 kV=0.2080002494301389 Vminpu=0.8 Vmaxpu=1.2 model=1 kW=2.89003 kvar=0.5898631429656088 Phases=2

New Load.load_p1ulv19613 conn=wye bus1=p1ulv19613.1.2 kV=0.2080002494301389 Vminpu=0.8 Vmaxpu=1.2 model=1 kW=3.20003 kvar=0.6497938057886328 Phases=2

New Load.load_p1ulv19614 conn=wye bus1=p1ulv19614.1.2 kV=0.2080002494301389 Vminpu=0.8 Vmaxpu=1.2 model=1 kW=3.38003 kvar=0.6898735027380501 Phases=2

New Load.load_p1ulv19615 conn=wye bus1=p1ulv19615.1.2 kV=0.2080002494301389 Vminpu=0.8 Vmaxpu=1.2 model=1 kW=1.41001 kvar=0.2899829315447996 Phases=2

New Load.load_p1ulv19616 conn=wye bus1=p1ulv19616.1.2 kV=0.2080002494301389 Vminpu=0.8 Vmaxpu=1.2 model=1 kW=1.38001 kvar=0.28022298226153225 Phases=2

New Load.load_p1ulv19617 conn=wye bus1=p1ulv19617.1.2 kV=0.2080002494301389 Vminpu=0.8 Vmaxpu=1.2 model=1 kW=1.87002 kvar=0.3797237565588007 Phases=2

New Load.load_p1ulv19618 conn=wye bus1=p1ulv19618.1.2 kV=0.2080002494301389 Vminpu=0.8 Vmaxpu=1.2 model=1 kW=1.7400200000000001 kvar=0.3496676317043298 Phases=2

New Load.load_p1ulv19619 conn=wye bus1=p1ulv19618.1.2 kV=0.2080002494301389 Vminpu=0.8 Vmaxpu=1.2 model=1 kW=1.38001 kvar=0.28022298226153225 Phases=2

New Load.load_p1ulv19620 conn=wye bus1=p1ulv19620.1.2 kV=0.2080002494301389 Vminpu=0.8 Vmaxpu=1.2 model=1 kW=1.38001 kvar=0.28022298226153225 Phases=2

New Load.load_p1ulv19621 conn=wye bus1=p1ulv19621.1.2 kV=0.2080002494301389 Vminpu=0.8 Vmaxpu=1.2 model=1 kW=1.38001 kvar=0.28022298226153225 Phases=2

New Load.load_p1ulv19622 conn=wye bus1=p1ulv19621.1.2 kV=0.2080002494301389 Vminpu=0.8 Vmaxpu=1.2 model=1 kW=1.90002 kvar=0.3897743018115738 Phases=2

New Load.load_p1ulv19623 conn=wye bus1=p1ulv19623.1.2 kV=0.2080002494301389 Vminpu=0.8 Vmaxpu=1.2 model=1 kW=2.87003 kvar=0.5797741681037358 Phases=2

New Load.load_p1ulv19624 conn=wye bus1=p1ulv19624.1.2 kV=0.2080002494301389 Vminpu=0.8 Vmaxpu=1.2 model=1 kW=2.8000300000000005 kvar=0.5700337678771953 Phases=2

New Load.load_p1ulv19625 conn=wye bus1=p1ulv19625.1.2 kV=0.2080002494301389 Vminpu=0.8 Vmaxpu=1.2 model=1 kW=2.84003 kvar=0.5796580042133189 Phases=2

New Load.load_p1ulv19626 conn=wye bus1=p1ulv19625.1.2 kV=0.2080002494301389 Vminpu=0.8 Vmaxpu=1.2 model=1 kW=2.88003 kvar=0.5802786818127376 Phases=2

New Load.load_p1ulv19627 conn=wye bus1=p1ulv19627.1.2 kV=0.2080002494301389 Vminpu=0.8 Vmaxpu=1.2 model=1 kW=3.21003 kvar=0.6501428670480555 Phases=2

New Load.load_p1ulv19628 conn=wye bus1=p1ulv19628.1.2 kV=0.2080002494301389 Vminpu=0.8 Vmaxpu=1.2 model=1 kW=3.06003 kvar=0.6197626431693976 Phases=2

New Load.load_p1ulv19629 conn=wye bus1=p1ulv19629.1.2 kV=0.2080002494301389 Vminpu=0.8 Vmaxpu=1.2 model=1 kW=2.91003 kvar=0.5893824192907394 Phases=2

New Load.load_p1ulv19630 conn=wye bus1=p1ulv19627.1.2 kV=0.2080002494301389 Vminpu=0.8 Vmaxpu=1.2 model=1 kW=2.79003 kvar=0.569452865461029 Phases=2

New Load.load_p1ulv19631 conn=wye bus1=p1ulv19631.1.2 kV=0.2080002494301389 Vminpu=0.8 Vmaxpu=1.2 model=1 kW=2.97003 kvar=0.5999751474699353 Phases=2

New Load.load_p1ulv19632 conn=wye bus1=p1ulv19629.1.2 kV=0.2080002494301389 Vminpu=0.8 Vmaxpu=1.2 model=1 kW=2.77003 kvar=0.5595731887375364 Phases=2

New Load.load_p1ulv19633 conn=wye bus1=p1ulv19633.1.2 kV=0.2080002494301389 Vminpu=0.8 Vmaxpu=1.2 model=1 kW=1.38001 kvar=0.28022298226153225 Phases=2

New Load.load_p1ulv19634 conn=wye bus1=p1ulv19633.1.2 kV=0.2080002494301389 Vminpu=0.8 Vmaxpu=1.2 model=1 kW=1.38001 kvar=0.28022298226153225 Phases=2

New Load.load_p1ulv19635 conn=wye bus1=p1ulv19637.1.2 kV=0.2080002494301389 Vminpu=0.8 Vmaxpu=1.2 model=1 kW=1.38001 kvar=0.28022298226153225 Phases=2

New Load.load_p1ulv19636 conn=wye bus1=p1ulv19637.1.2 kV=0.2080002494301389 Vminpu=0.8 Vmaxpu=1.2 model=1 kW=1.38001 kvar=0.28022298226153225 Phases=2

New Load.load_p1ulv19637 conn=wye bus1=p1ulv19637.1.2 kV=0.2080002494301389 Vminpu=0.8 Vmaxpu=1.2 model=1 kW=1.38001 kvar=0.28022298226153225 Phases=2

New Load.load_p1ulv19638 conn=wye bus1=p1ulv19638.1.2 kV=0.2080002494301389 Vminpu=0.8 Vmaxpu=1.2 model=1 kW=1.38001 kvar=0.28022298226153225 Phases=2

New Load.load_p1ulv19639 conn=wye bus1=p1ulv19639.1.2 kV=0.2080002494301389 Vminpu=0.8 Vmaxpu=1.2 model=1 kW=1.38001 kvar=0.28022298226153225 Phases=2

New Load.load_p1ulv19640 conn=wye bus1=p1ulv19640.1.2 kV=0.2080002494301389 Vminpu=0.8 Vmaxpu=1.2 model=1 kW=1.38001 kvar=0.28022298226153225 Phases=2

New Load.load_p1ulv19641 conn=wye bus1=p1ulv19641.1.2.3 kV=0.48 Vminpu=0.8 Vmaxpu=1.2 model=1 kW=28.410300000000003 kvar=5.768957466210252 Phases=3

New Load.load_p1ulv19642 conn=wye bus1=p1ulv19642.1.2 kV=0.2080002494301389 Vminpu=0.8 Vmaxpu=1.2 model=1 kW=3.18003 kvar=0.6507075106785133 Phases=2

New Load.load_p1ulv19643 conn=wye bus1=p1ulv19643.1.2 kV=0.2080002494301389 Vminpu=0.8 Vmaxpu=1.2 model=1 kW=3.06003 kvar=0.6197626431693976 Phases=2

New Load.load_p1ulv19644 conn=wye bus1=p1ulv19644.1.2 kV=0.2080002494301389 Vminpu=0.8 Vmaxpu=1.2 model=1 kW=2.94003 kvar=0.6000682817178988 Phases=2

New Load.load_p1ulv19645 conn=wye bus1=p1ulv19645.1.2 kV=0.2080002494301389 Vminpu=0.8 Vmaxpu=1.2 model=1 kW=2.98003 kvar=0.6004270372747549 Phases=2

New Load.load_p1ulv19646 conn=wye bus1=p1ulv19646.1.2 kV=0.2080002494301389 Vminpu=0.8 Vmaxpu=1.2 model=1 kW=1.46001 kvar=0.300265941294546 Phases=2

New Load.load_p1ulv19647 conn=wye bus1=p1ulv19647.1.2 kV=0.2080002494301389 Vminpu=0.8 Vmaxpu=1.2 model=1 kW=1.45001 kvar=0.28985337445853987 Phases=2

New Load.load_p1ulv19648 conn=wye bus1=p1ulv19646.1.2 kV=0.2080002494301389 Vminpu=0.8 Vmaxpu=1.2 model=1 kW=1.52002 kvar=0.31024030012511455 Phases=2

New Load.load_p1ulv19649 conn=wye bus1=p1ulv19649.1.2 kV=0.2080002494301389 Vminpu=0.8 Vmaxpu=1.2 model=1 kW=1.56002 kvar=0.32002595041741205 Phases=2

New Load.load_p1ulv19650 conn=wye bus1=p1ulv19650.1.2 kV=0.2080002494301389 Vminpu=0.8 Vmaxpu=1.2 model=1 kW=3.19003 kvar=0.6494304777239135 Phases=2

New Load.load_p1ulv19651 conn=wye bus1=p1ulv19651.1.2 kV=0.2080002494301389 Vminpu=0.8 Vmaxpu=1.2 model=1 kW=3.24003 kvar=0.6596095430888772 Phases=2

New Load.load_p1ulv19652 conn=wye bus1=p1ulv19652.1.2 kV=0.2080002494301389 Vminpu=0.8 Vmaxpu=1.2 model=1 kW=3.16003 kvar=0.6400161257551694 Phases=2

New Load.load_p1ulv19653 conn=wye bus1=p1ulv19653.1.2 kV=0.2080002494301389 Vminpu=0.8 Vmaxpu=1.2 model=1 kW=3.0500300000000005 kvar=0.6193350066935321 Phases=2
