New Line.l(r:p1ulv40065-udt205lv) Units=km Length=0.0203101 bus1=udt205lv.1.2 bus2=p1ulv40065.1.2 switch=n enabled=y phases=2 Linecode=1P_OH_AL_2/0_Rucina_0_416_0_2_2

New Line.l(r:p1ulv43330-udt205lv) Units=km Length=0.0201354 bus1=udt205lv.1.2 bus2=p1ulv43330.1.2 switch=n enabled=y phases=2 Linecode=1P_OH_AL_2/0_Rucina_0_416_0_2_2

New Line.l(r:p1ulv327-udm747) Units=km Length=0.0349401 bus1=udm747.1.2 bus2=p1ulv327.1.2 switch=n enabled=y phases=2 Linecode=1P_OH_AL_4/0_Zuzara_0_416_0_2_2

New Line.l(r:p1ulv328-udm747) Units=km Length=0.0473321 bus1=udm747.1.2 bus2=p1ulv328.1.2 switch=n enabled=y phases=2 Linecode=1P_OH_AL_4/0_Zuzara_0_416_0_2_2

New Line.l(r:p1ulv42108-udm750) Units=km Length=0.0240425 bus1=udm750.1.2 bus2=p1ulv42108.1.2 switch=n enabled=y phases=2 Linecode=1P_OH_AL_2/0_Rucina_0_416_0_2_2

New Line.l(r:p1ulv52007-udm750) Units=km Length=0.018112 bus1=udm750.1.2 bus2=p1ulv52007.1.2 switch=n enabled=y phases=2 Linecode=1P_OH_AL_2/0_Rucina_0_416_0_2_2

New Line.l(r:udm747-udm750) Units=km Length=0.0134663 bus1=udm747.1.2 bus2=udm750.1.2 switch=n enabled=y phases=2 Linecode=1P_OH_AL_2/0_Rucina_0_416_0_2_2

New Line.l(r:udm747-udt205lv) Units=km Length=0.0134672 bus1=udt205lv.1.2 bus2=udm747.1.2 switch=n enabled=y phases=2 Linecode=1P_OH_AL_2/0_Rucina_0_416_0_2_2

New Line.l(r:p1ulv57444-udm754) Units=km Length=0.0199673 bus1=udm754.1.2 bus2=p1ulv57444.1.2 switch=n enabled=y phases=2 Linecode=1P_OH_AL_2/0_Rucina_0_416_0_2_2

New Line.l(r:p1ulv54879-udm753) Units=km Length=0.018268100000000002 bus1=udm753.1.2 bus2=p1ulv54879.1.2 switch=n enabled=y phases=2 Linecode=1P_OH_AL_2/0_Rucina_0_416_0_2_2

New Line.l(r:udm753-udm754) Units=km Length=0.0160747 bus1=udm754.1.2 bus2=udm753.1.2 switch=n enabled=y phases=2 Linecode=1P_OH_AL_2/0_Rucina_0_416_0_2_2

New Line.l(r:udm754-udt205lv) Units=km Length=0.0335364 bus1=udt205lv.1.2 bus2=udm754.1.2 switch=n enabled=y phases=2 Linecode=1P_OH_AL_4/0_Zuzara_0_416_0_2_2

New Line.l(r:p1ulv329-udm755) Units=km Length=0.0203559 bus1=udm755.1.2 bus2=p1ulv329.1.2 switch=n enabled=y phases=2 Linecode=1P_OH_AL_2/0_Rucina_0_416_0_2_2

New Line.l(r:p1ulv9860-udm755) Units=km Length=0.018009500000000005 bus1=udm755.1.2 bus2=p1ulv9860.1.2 switch=n enabled=y phases=2 Linecode=1P_OH_AL_2/0_Rucina_0_416_0_2_2

New Line.l(r:udm755-udt206lv) Units=km Length=0.0108837 bus1=udt206lv.1.2 bus2=udm755.1.2 switch=n enabled=y phases=2 Linecode=1P_OH_AL_2/0_Rucina_0_416_0_2_2

New Line.l(r:p1ulv41732-udm757) Units=km Length=0.0199646 bus1=udm757.1.2 bus2=p1ulv41732.1.2 switch=n enabled=y phases=2 Linecode=1P_OH_AL_2/0_Rucina_0_416_0_2_2

New Line.l(r:udm757-udt206lv) Units=km Length=0.0108888 bus1=udt206lv.1.2 bus2=udm757.1.2 switch=n enabled=y phases=2 Linecode=1P_OH_AL_2/0_Rucina_0_416_0_2_2

New Line.l(r:p1ulv332-udm759) Units=km Length=0.0155785 bus1=udm759.1.2 bus2=p1ulv332.1.2 switch=n enabled=y phases=2 Linecode=1P_UG_AL_1/0_Brenau_0_416_0_2_2

New Line.l(r:p1ulv9842-udm760) Units=km Length=0.0184608 bus1=udm760.1.2 bus2=p1ulv9842.1.2 switch=n enabled=y phases=2 Linecode=1P_OH_AL_2/0_Rucina_0_416_0_2_2

New Line.l(r:p1ulv330-udm758) Units=km Length=0.0225459 bus1=udm758.1.2 bus2=p1ulv330.1.2 switch=n enabled=y phases=2 Linecode=1P_OH_AL_2/0_Rucina_0_416_0_2_2

New Line.l(r:udm758-udm760) Units=km Length=0.018069200000000004 bus1=udm760.1.2 bus2=udm758.1.2 switch=n enabled=y phases=2 Linecode=1P_OH_AL_2/0_Rucina_0_416_0_2_2

New Line.l(r:udm759-udm760) Units=km Length=0.0364101 bus1=udm759.1.2 bus2=udm760.1.2 switch=n enabled=y phases=2 Linecode=1P_OH_AL_4/0_Zuzara_0_416_0_2_2

New Line.l(r:udm759-udt207lv) Units=km Length=0.0366837 bus1=udt207lv.1.2 bus2=udm759.1.2 switch=n enabled=y phases=2 Linecode=1P_UG_AL_2/0_Converse_0_416_0_2_2

New Line.l(r:p1ulv39752-udm761) Units=km Length=0.0316658 bus1=udm761.1.2 bus2=p1ulv39752.1.2 switch=n enabled=y phases=2 Linecode=1P_UG_AL_1/0_Brenau_0_416_0_2_2

New Line.l(r:p1ulv57493-udm761) Units=km Length=0.0441009 bus1=udm761.1.2 bus2=p1ulv57493.1.2 switch=n enabled=y phases=2 Linecode=1P_UG_AL_1/0_Brenau_0_416_0_2_2

New Line.l(r:p1ulv45036-udm762) Units=km Length=0.027061800000000004 bus1=udm762.1.2 bus2=p1ulv45036.1.2 switch=n enabled=y phases=2 Linecode=1P_UG_AL_1/0_Brenau_0_416_0_2_2

New Line.l(r:p1ulv54160-udm762) Units=km Length=0.0265882 bus1=udm762.1.2 bus2=p1ulv54160.1.2 switch=n enabled=y phases=2 Linecode=1P_UG_AL_1/0_Brenau_0_416_0_2_2

New Line.l(r:p1ulv58359-udm762) Units=km Length=0.026409300000000004 bus1=udm762.1.2 bus2=p1ulv58359.1.2 switch=n enabled=y phases=2 Linecode=1P_UG_AL_1/0_Brenau_0_416_0_2_2

New Line.l(r:udm761-udm762) Units=km Length=0.00917092 bus1=udm761.1.2 bus2=udm762.1.2 switch=n enabled=y phases=2 Linecode=1P_UG_AL_1/0_Brenau_0_416_0_2_2

New Line.l(r:udm761-udt207lv) Units=km Length=0.00917092 bus1=udt207lv.1.2 bus2=udm761.1.2 switch=n enabled=y phases=2 Linecode=1P_UG_AL_4/0_Sweetbriar_0_416_0_2_2

New Line.l(r:p1ulv331-udm766) Units=km Length=0.0162003 bus1=udm766.1.2 bus2=p1ulv331.1.2 switch=n enabled=y phases=2 Linecode=1P_UG_AL_1/0_Brenau_0_416_0_2_2

New Line.l(r:p1ulv52718-udm767) Units=km Length=0.0148456 bus1=udm767.1.2 bus2=p1ulv52718.1.2 switch=n enabled=y phases=2 Linecode=1P_UG_AL_1/0_Brenau_0_416_0_2_2

New Line.l(r:udm766-udm767) Units=km Length=0.0350367 bus1=udm766.1.2 bus2=udm767.1.2 switch=n enabled=y phases=2 Linecode=1P_UG_AL_1/0_Brenau_0_416_0_2_2

New Line.l(r:udm766-udt208lv) Units=km Length=0.00918491 bus1=udt208lv.1.2 bus2=udm766.1.2 switch=n enabled=y phases=2 Linecode=1P_UG_AL_1/0_Brenau_0_416_0_2_2

New Line.l(r:p1ulv58258-udm768) Units=km Length=0.0196281 bus1=udm768.1.2 bus2=p1ulv58258.1.2 switch=n enabled=y phases=2 Linecode=1P_UG_AL_1/0_Brenau_0_416_0_2_2

New Line.l(r:udm768-udt208lv) Units=km Length=0.00794553 bus1=udt208lv.1.2 bus2=udm768.1.2 switch=n enabled=y phases=2 Linecode=1P_UG_AL_1/0_Brenau_0_416_0_2_2

New Line.l(r:p1ulv9849-udm770) Units=km Length=0.0176207 bus1=udm770.1.2 bus2=p1ulv9849.1.2 switch=n enabled=y phases=2 Linecode=1P_UG_AL_1/0_Brenau_0_416_0_2_2

New Line.l(r:udm770-udt209lv) Units=km Length=0.030501 bus1=udt209lv.1.2 bus2=udm770.1.2 switch=n enabled=y phases=2 Linecode=1P_UG_AL_1/0_Brenau_0_416_0_2_2

New Line.l(r:p1ulv56629-udm771) Units=km Length=0.0165157 bus1=udm771.1.2 bus2=p1ulv56629.1.2 switch=n enabled=y phases=2 Linecode=1P_UG_AL_1/0_Brenau_0_416_0_2_2

New Line.l(r:p1ulv333-udm769) Units=km Length=0.0411818 bus1=udm769.1.2 bus2=p1ulv333.1.2 switch=n enabled=y phases=2 Linecode=1P_UG_AL_1/0_Brenau_0_416_0_2_2

New Line.l(r:udm769-udm771) Units=km Length=0.00703018 bus1=udm771.1.2 bus2=udm769.1.2 switch=n enabled=y phases=2 Linecode=1P_UG_AL_1/0_Brenau_0_416_0_2_2

New Line.l(r:udm771-udt209lv) Units=km Length=0.00703011 bus1=udt209lv.1.2 bus2=udm771.1.2 switch=n enabled=y phases=2 Linecode=1P_UG_AL_1/0_Brenau_0_416_0_2_2

New Line.l(r:p1ulv334-udt210lv) Units=km Length=0.02017 bus1=udt210lv.1.2 bus2=p1ulv334.1.2 switch=n enabled=y phases=2 Linecode=1P_OH_AL_2/0_Rucina_0_416_0_2_2

New Line.l(r:p1ulv336-udt210lv) Units=km Length=0.0286822 bus1=udt210lv.1.2 bus2=p1ulv336.1.2 switch=n enabled=y phases=2 Linecode=1P_OH_AL_4/0_Zuzara_0_416_0_2_2

New Line.l(r:p1ulv59939-udt210lv) Units=km Length=0.0252987 bus1=udt210lv.1.2 bus2=p1ulv59939.1.2 switch=n enabled=y phases=2 Linecode=1P_OH_AL_2/0_Rucina_0_416_0_2_2

New Line.l(r:p1ulv335-udt211lv) Units=km Length=0.0199407 bus1=udt211lv.1.2 bus2=p1ulv335.1.2 switch=n enabled=y phases=2 Linecode=1P_UG_AL_1/0_Brenau_0_416_0_2_2

New Line.l(r:p1ulv53027-udt211lv) Units=km Length=0.0201385 bus1=udt211lv.1.2 bus2=p1ulv53027.1.2 switch=n enabled=y phases=2 Linecode=1P_UG_AL_1/0_Brenau_0_416_0_2_2

New Line.l(r:p1ulv59871-udm777) Units=km Length=0.0242211 bus1=udm777.1.2 bus2=p1ulv59871.1.2 switch=n enabled=y phases=2 Linecode=1P_UG_AL_1/0_Brenau_0_416_0_2_2

New Line.l(r:udm777-udt211lv) Units=km Length=0.007327570000000001 bus1=udt211lv.1.2 bus2=udm777.1.2 switch=n enabled=y phases=2 Linecode=1P_UG_AL_1/0_Brenau_0_416_0_2_2

New Line.l(r:p1ulv46829-udt212lv) Units=km Length=0.0192908 bus1=udt212lv.1.2 bus2=p1ulv46829.1.2 switch=n enabled=y phases=2 Linecode=1P_UG_AL_1/0_Brenau_0_416_0_2_2

New Line.l(r:p1ulv54812-udt212lv) Units=km Length=0.0220177 bus1=udt212lv.1.2 bus2=p1ulv54812.1.2 switch=n enabled=y phases=2 Linecode=1P_UG_AL_1/0_Brenau_0_416_0_2_2

New Line.l(r:p1ulv337-udm778) Units=km Length=0.018104200000000004 bus1=udm778.1.2 bus2=p1ulv337.1.2 switch=n enabled=y phases=2 Linecode=1P_UG_AL_1/0_Brenau_0_416_0_2_2

New Line.l(r:udm778-udt212lv) Units=km Length=0.00828436 bus1=udt212lv.1.2 bus2=udm778.1.2 switch=n enabled=y phases=2 Linecode=1P_UG_AL_1/0_Brenau_0_416_0_2_2

New Line.l(r:p1ulv340-udt215lv) Units=km Length=0.0943857 bus1=udt215lv.1.2 bus2=p1ulv340.1.2 switch=n enabled=y phases=2 Linecode=1P_OH_AL_4/0_Zuzara_0_416_0_2_2

New Line.l(r:p1ulv44845-udt215lv) Units=km Length=0.0359784 bus1=udt215lv.1.2 bus2=p1ulv44845.1.2 switch=n enabled=y phases=2 Linecode=1P_OH_AL_4/0_Zuzara_0_416_0_2_2

New Line.l(r:p1ulv48446-udt215lv) Units=km Length=0.0560625 bus1=udt215lv.1.2 bus2=p1ulv48446.1.2 switch=n enabled=y phases=2 Linecode=1P_OH_AL_4/0_Zuzara_0_416_0_2_2

New Line.l(r:p1ulv689-udt343lv) Units=km Length=0.0244484 bus1=udt343lv.1.2 bus2=p1ulv689.1.2 switch=n enabled=y phases=2 Linecode=1P_UG_AL_1/0_Brenau_0_416_0_2_2

New Line.l(r:p1ulv683-udm1342) Units=km Length=0.010475300000000002 bus1=udm1342.1.2 bus2=p1ulv683.1.2 switch=n enabled=y phases=2 Linecode=1P_UG_AL_1/0_Brenau_0_416_0_2_2

New Line.l(r:p1ulv682-udm1341) Units=km Length=0.00484286 bus1=udm1341.1.2 bus2=p1ulv682.1.2 switch=n enabled=y phases=2 Linecode=1P_OH_AL_2/0_Rucina_0_416_0_2_2

New Line.l(r:p1ulv684-udm1343) Units=km Length=0.0209637 bus1=udm1343.1.2 bus2=p1ulv684.1.2 switch=n enabled=y phases=2 Linecode=1P_OH_AL_2/0_Rucina_0_416_0_2_2

New Line.l(r:p1ulv685-udm1343) Units=km Length=0.0121472 bus1=udm1343.1.2 bus2=p1ulv685.1.2 switch=n enabled=y phases=2 Linecode=1P_OH_AL_2/0_Rucina_0_416_0_2_2

New Line.l(r:udm1341-udm1343) Units=km Length=0.016152100000000003 bus1=udm1341.1.2 bus2=udm1343.1.2 switch=n enabled=y phases=2 Linecode=1P_OH_AL_2/0_Rucina_0_416_0_2_2

New Line.l(r:udm1341-udm1342) Units=km Length=0.0209576 bus1=udm1342.1.2 bus2=udm1341.1.2 switch=n enabled=y phases=2 Linecode=1P_OH_AL_2/0_Rucina_0_416_0_2_2

New Line.l(r:udm1342-udt343lv) Units=km Length=0.005566550000000001 bus1=udt343lv.1.2 bus2=udm1342.1.2 switch=n enabled=y phases=2 Linecode=1P_UG_AL_4/0_Sweetbriar_0_416_0_2_2

New Line.l(r:p1ulv688-udm1345) Units=km Length=0.00992762 bus1=udm1345.1.2 bus2=p1ulv688.1.2 switch=n enabled=y phases=2 Linecode=1P_UG_AL_1/0_Brenau_0_416_0_2_2

New Line.l(r:p1ulv697-udm1347) Units=km Length=0.0115866 bus1=udm1347.1.2 bus2=p1ulv697.1.2 switch=n enabled=y phases=2 Linecode=1P_UG_AL_1/0_Brenau_0_416_0_2_2

New Line.l(r:udm1345-udm1347) Units=km Length=0.008372390000000002 bus1=udm1345.1.2 bus2=udm1347.1.2 switch=n enabled=y phases=2 Linecode=1P_UG_AL_1/0_Brenau_0_416_0_2_2

New Line.l(r:udm1345-udt343lv) Units=km Length=0.0167345 bus1=udt343lv.1.2 bus2=udm1345.1.2 switch=n enabled=y phases=2 Linecode=1P_UG_AL_2/0_Converse_0_416_0_2_2

New Line.l(r:p1ulv691-udt344lv) Units=km Length=0.0113584 bus1=udt344lv.1.2 bus2=p1ulv691.1.2 switch=n enabled=y phases=2 Linecode=1P_OH_AL_2/0_Rucina_0_416_0_2_2

New Line.l(r:p1ulv692-udt344lv) Units=km Length=0.0305361 bus1=udt344lv.1.2 bus2=p1ulv692.1.2 switch=n enabled=y phases=2 Linecode=1P_OH_AL_4/0_Zuzara_0_416_0_2_2

New Line.l(r:p1ulv702-udt344lv) Units=km Length=0.026501 bus1=udt344lv.1.2 bus2=p1ulv702.1.2 switch=n enabled=y phases=2 Linecode=1P_OH_AL_2/0_Rucina_0_416_0_2_2

New Line.l(r:p1ulv705-udt344lv) Units=km Length=0.0137543 bus1=udt344lv.1.2 bus2=p1ulv705.1.2 switch=n enabled=y phases=2 Linecode=1P_OH_AL_2/0_Rucina_0_416_0_2_2

New Line.l(r:p1ulv686-udm1348) Units=km Length=0.014863200000000002 bus1=udm1348.1.2 bus2=p1ulv686.1.2 switch=n enabled=y phases=2 Linecode=1P_OH_AL_2/0_Rucina_0_416_0_2_2

New Line.l(r:p1ulv704-udm1348) Units=km Length=0.0124048 bus1=udm1348.1.2 bus2=p1ulv704.1.2 switch=n enabled=y phases=2 Linecode=1P_OH_AL_2/0_Rucina_0_416_0_2_2

New Line.l(r:p1ulv703-udm1353) Units=km Length=0.0167314 bus1=udm1353.1.2 bus2=p1ulv703.1.2 switch=n enabled=y phases=2 Linecode=1P_UG_AL_1/0_Brenau_0_416_0_2_2

New Line.l(r:udm1348-udm1353) Units=km Length=0.0482299 bus1=udm1348.1.2 bus2=udm1353.1.2 switch=n enabled=y phases=2 Linecode=1P_OH_AL_4/0_Zuzara_0_416_0_2_2

New Line.l(r:udm1348-udt344lv) Units=km Length=0.0184066 bus1=udt344lv.1.2 bus2=udm1348.1.2 switch=n enabled=y phases=2 Linecode=1P_OH_AL_2/0_Rucina_0_416_0_2_2

New Line.l(r:p1ulv690-udm1349) Units=km Length=0.0122703 bus1=udm1349.1.2 bus2=p1ulv690.1.2 switch=n enabled=y phases=2 Linecode=1P_OH_AL_2/0_Rucina_0_416_0_2_2

New Line.l(r:udm1349-udt344lv) Units=km Length=0.0184172 bus1=udt344lv.1.2 bus2=udm1349.1.2 switch=n enabled=y phases=2 Linecode=1P_OH_AL_2/0_Rucina_0_416_0_2_2

New Line.l(r:p1ulv700-udt345lv) Units=km Length=0.0305001 bus1=udt345lv.1.2 bus2=p1ulv700.1.2 switch=n enabled=y phases=2 Linecode=1P_UG_AL_1/0_Brenau_0_416_0_2_2

New Line.l(r:p1ulv701-udt345lv) Units=km Length=0.010468200000000002 bus1=udt345lv.1.2 bus2=p1ulv701.1.2 switch=n enabled=y phases=2 Linecode=1P_UG_AL_1/0_Brenau_0_416_0_2_2

New Line.l(r:p1ulv687-udm1356) Units=km Length=0.00992244 bus1=udm1356.1.2 bus2=p1ulv687.1.2 switch=n enabled=y phases=2 Linecode=1P_UG_AL_1/0_Brenau_0_416_0_2_2

New Line.l(r:p1ulv694-udm1357) Units=km Length=0.011678200000000001 bus1=udm1357.1.2 bus2=p1ulv694.1.2 switch=n enabled=y phases=2 Linecode=1P_UG_AL_1/0_Brenau_0_416_0_2_2

New Line.l(r:p1ulv695-udm1357) Units=km Length=0.0315459 bus1=udm1357.1.2 bus2=p1ulv695.1.2 switch=n enabled=y phases=2 Linecode=1P_UG_AL_2/0_Converse_0_416_0_2_2

New Line.l(r:udm1356-udm1357) Units=km Length=0.00655516 bus1=udm1356.1.2 bus2=udm1357.1.2 switch=n enabled=y phases=2 Linecode=1P_UG_AL_4/0_Sweetbriar_0_416_0_2_2

New Line.l(r:udm1356-udt345lv) Units=km Length=0.0220619 bus1=udt345lv.1.2 bus2=udm1356.1.2 switch=n enabled=y phases=2 Linecode=1P_UG_AL_4/0_Sweetbriar_0_416_0_2_2

New Line.l(r:p1ulv699-udm1359) Units=km Length=0.030551300000000003 bus1=udm1359.1.2 bus2=p1ulv699.1.2 switch=n enabled=y phases=2 Linecode=1P_UG_AL_1/0_Brenau_0_416_0_2_2

New Line.l(r:p1ulv709-udm1362) Units=km Length=0.0158072 bus1=udm1362.1.2 bus2=p1ulv709.1.2 switch=n enabled=y phases=2 Linecode=1P_UG_AL_1/0_Brenau_0_416_0_2_2

New Line.l(r:udm1359-udm1362) Units=km Length=0.0593589 bus1=udm1359.1.2 bus2=udm1362.1.2 switch=n enabled=y phases=2 Linecode=1P_UG_AL_1/0_Brenau_0_416_0_2_2

New Line.l(r:udm1359-udt345lv) Units=km Length=0.00940615 bus1=udt345lv.1.2 bus2=udm1359.1.2 switch=n enabled=y phases=2 Linecode=1P_UG_AL_1/0_Brenau_0_416_0_2_2

New Line.l(r:p1ulv12690-udt346lv) Units=km Length=0.0455943 bus1=udt346lv.1.2 bus2=p1ulv12690.1.2 switch=n enabled=y phases=2 Linecode=1P_OH_AL_4/0_Zuzara_0_416_0_2_2

New Line.l(r:p1ulv693-udm1363) Units=km Length=0.0291569 bus1=udm1363.1.2 bus2=p1ulv693.1.2 switch=n enabled=y phases=2 Linecode=1P_OH_AL_4/0_Zuzara_0_416_0_2_2

New Line.l(r:udm1363-udt346lv) Units=km Length=0.0187613 bus1=udt346lv.1.2 bus2=udm1363.1.2 switch=n enabled=y phases=2 Linecode=1P_OH_AL_2/0_Rucina_0_416_0_2_2

New Line.l(r:p1ulv711-udt347lv) Units=km Length=0.0314821 bus1=udt347lv.1.2 bus2=p1ulv711.1.2 switch=n enabled=y phases=2 Linecode=1P_UG_AL_1/0_Brenau_0_416_0_2_2

New Line.l(r:p1ulv712-udt347lv) Units=km Length=0.0113743 bus1=udt347lv.1.2 bus2=p1ulv712.1.2 switch=n enabled=y phases=2 Linecode=1P_UG_AL_1/0_Brenau_0_416_0_2_2

New Line.l(r:p1ulv698-udm1365) Units=km Length=0.0101424 bus1=udm1365.1.2 bus2=p1ulv698.1.2 switch=n enabled=y phases=2 Linecode=1P_UG_AL_1/0_Brenau_0_416_0_2_2

New Line.l(r:udm1365-udt347lv) Units=km Length=0.00940615 bus1=udt347lv.1.2 bus2=udm1365.1.2 switch=n enabled=y phases=2 Linecode=1P_UG_AL_1/0_Brenau_0_416_0_2_2

New Line.l(r:p1ulv710-udm1366) Units=km Length=0.0318742 bus1=udm1366.1.2 bus2=p1ulv710.1.2 switch=n enabled=y phases=2 Linecode=1P_UG_AL_1/0_Brenau_0_416_0_2_2

New Line.l(r:p1ulv713-udm1369) Units=km Length=0.0127596 bus1=udm1369.1.2 bus2=p1ulv713.1.2 switch=n enabled=y phases=2 Linecode=1P_UG_AL_1/0_Brenau_0_416_0_2_2

New Line.l(r:udm1366-udm1369) Units=km Length=0.00941651 bus1=udm1366.1.2 bus2=udm1369.1.2 switch=n enabled=y phases=2 Linecode=1P_UG_AL_1/0_Brenau_0_416_0_2_2

New Line.l(r:udm1366-udt347lv) Units=km Length=0.00940615 bus1=udt347lv.1.2 bus2=udm1366.1.2 switch=n enabled=y phases=2 Linecode=1P_UG_AL_2/0_Converse_0_416_0_2_2

New Line.l(r:p1ulv706-udt348lv) Units=km Length=0.0346943 bus1=udt348lv.1.2 bus2=p1ulv706.1.2 switch=n enabled=y phases=2 Linecode=1P_OH_AL_4/0_Zuzara_0_416_0_2_2

New Line.l(r:p1ulv708-udt349lv) Units=km Length=0.0156267 bus1=udt349lv.1.2 bus2=p1ulv708.1.2 switch=n enabled=y phases=2 Linecode=1P_UG_AL_1/0_Brenau_0_416_0_2_2

New Line.l(r:p1ulv715-udt350lv) Units=km Length=0.0116083 bus1=udt350lv.1.2 bus2=p1ulv715.1.2 switch=n enabled=y phases=2 Linecode=1P_UG_AL_1/0_Brenau_0_416_0_2_2

New Line.l(r:p1ulv716-udt350lv) Units=km Length=0.0322372 bus1=udt350lv.1.2 bus2=p1ulv716.1.2 switch=n enabled=y phases=2 Linecode=1P_UG_AL_1/0_Brenau_0_416_0_2_2

New Line.l(r:p1ulv714-udm1372) Units=km Length=0.0123428 bus1=udm1372.1.2 bus2=p1ulv714.1.2 switch=n enabled=y phases=2 Linecode=1P_UG_AL_1/0_Brenau_0_416_0_2_2

New Line.l(r:p1ulv717-udm1372) Units=km Length=0.0328102 bus1=udm1372.1.2 bus2=p1ulv717.1.2 switch=n enabled=y phases=2 Linecode=1P_UG_AL_1/0_Brenau_0_416_0_2_2

New Line.l(r:udm1372-udt350lv) Units=km Length=0.00876733 bus1=udt350lv.1.2 bus2=udm1372.1.2 switch=n enabled=y phases=2 Linecode=1P_UG_AL_1/0_Brenau_0_416_0_2_2

New Line.l(r:p1ulv56342-udm1376) Units=km Length=0.0060319300000000005 bus1=udm1376.1.2 bus2=p1ulv56342.1.2 switch=n enabled=y phases=2 Linecode=1P_UG_AL_1/0_Brenau_0_416_0_2_2

New Line.l(r:udm1376-udt350lv) Units=km Length=0.0126465 bus1=udt350lv.1.2 bus2=udm1376.1.2 switch=n enabled=y phases=2 Linecode=1P_UG_AL_1/0_Brenau_0_416_0_2_2

New Line.l(r:p1ulv719-udt351lv) Units=km Length=0.0297569 bus1=udt351lv.1.2 bus2=p1ulv719.1.2 switch=n enabled=y phases=2 Linecode=1P_OH_AL_4/0_Zuzara_0_416_0_2_2

New Line.l(r:p1ulv718-udm1377) Units=km Length=0.0303576 bus1=udm1377.1.2 bus2=p1ulv718.1.2 switch=n enabled=y phases=2 Linecode=1P_OH_AL_4/0_Zuzara_0_416_0_2_2

New Line.l(r:udm1377-udt351lv) Units=km Length=0.012847 bus1=udt351lv.1.2 bus2=udm1377.1.2 switch=n enabled=y phases=2 Linecode=1P_OH_AL_2/0_Rucina_0_416_0_2_2

New Line.l(r:p1ulv49913-udm1379) Units=km Length=0.0218189 bus1=udm1379.1.2 bus2=p1ulv49913.1.2 switch=n enabled=y phases=2 Linecode=1P_OH_AL_2/0_Rucina_0_416_0_2_2

New Line.l(r:udm1379-udt351lv) Units=km Length=0.0128375 bus1=udt351lv.1.2 bus2=udm1379.1.2 switch=n enabled=y phases=2 Linecode=1P_OH_AL_2/0_Rucina_0_416_0_2_2

New Line.l(r:p1ulv722-udt352lv) Units=km Length=0.0296763 bus1=udt352lv.1.2 bus2=p1ulv722.1.2 switch=n enabled=y phases=2 Linecode=1P_UG_AL_1/0_Brenau_0_416_0_2_2

New Line.l(r:p1ulv720-udm1380) Units=km Length=0.00986961 bus1=udm1380.1.2 bus2=p1ulv720.1.2 switch=n enabled=y phases=2 Linecode=1P_UG_AL_1/0_Brenau_0_416_0_2_2

New Line.l(r:p1ulv721-udm1381) Units=km Length=0.0121487 bus1=udm1381.1.2 bus2=p1ulv721.1.2 switch=n enabled=y phases=2 Linecode=1P_UG_AL_1/0_Brenau_0_416_0_2_2

New Line.l(r:udm1380-udm1381) Units=km Length=0.0126815 bus1=udm1380.1.2 bus2=udm1381.1.2 switch=n enabled=y phases=2 Linecode=1P_UG_AL_1/0_Brenau_0_416_0_2_2

New Line.l(r:udm1380-udt352lv) Units=km Length=0.00946089 bus1=udt352lv.1.2 bus2=udm1380.1.2 switch=n enabled=y phases=2 Linecode=1P_UG_AL_2/0_Converse_0_416_0_2_2

New Line.l(r:p1ulv723-udm1383) Units=km Length=0.0297098 bus1=udm1383.1.2 bus2=p1ulv723.1.2 switch=n enabled=y phases=2 Linecode=1P_UG_AL_1/0_Brenau_0_416_0_2_2

New Line.l(r:p1ulv724-udm1383) Units=km Length=0.0101442 bus1=udm1383.1.2 bus2=p1ulv724.1.2 switch=n enabled=y phases=2 Linecode=1P_UG_AL_1/0_Brenau_0_416_0_2_2

New Line.l(r:udm1383-udt352lv) Units=km Length=0.00947089 bus1=udt352lv.1.2 bus2=udm1383.1.2 switch=n enabled=y phases=2 Linecode=1P_UG_AL_4/0_Sweetbriar_0_416_0_2_2

New Line.l(r:p1ulv727-udt353lv) Units=km Length=0.0124281 bus1=udt353lv.1.2 bus2=p1ulv727.1.2 switch=n enabled=y phases=2 Linecode=1P_UG_AL_1/0_Brenau_0_416_0_2_2

New Line.l(r:p1ulv728-udt353lv) Units=km Length=0.0318957 bus1=udt353lv.1.2 bus2=p1ulv728.1.2 switch=n enabled=y phases=2 Linecode=1P_UG_AL_1/0_Brenau_0_416_0_2_2

New Line.l(r:p1ulv726-udm1385) Units=km Length=0.0130335 bus1=udm1385.1.2 bus2=p1ulv726.1.2 switch=n enabled=y phases=2 Linecode=1P_UG_AL_1/0_Brenau_0_416_0_2_2

New Line.l(r:p1ulv729-udm1385) Units=km Length=0.0327615 bus1=udm1385.1.2 bus2=p1ulv729.1.2 switch=n enabled=y phases=2 Linecode=1P_UG_AL_1/0_Brenau_0_416_0_2_2

New Line.l(r:udm1385-udt353lv) Units=km Length=0.0089745 bus1=udt353lv.1.2 bus2=udm1385.1.2 switch=n enabled=y phases=2 Linecode=1P_UG_AL_1/0_Brenau_0_416_0_2_2

New Line.l(r:p1ulv730-udm1389) Units=km Length=0.0372753 bus1=udm1389.1.2 bus2=p1ulv730.1.2 switch=n enabled=y phases=2 Linecode=1P_UG_AL_1/0_Brenau_0_416_0_2_2

New Line.l(r:p1ulv731-udm1389) Units=km Length=0.0347246 bus1=udm1389.1.2 bus2=p1ulv731.1.2 switch=n enabled=y phases=2 Linecode=1P_UG_AL_1/0_Brenau_0_416_0_2_2

New Line.l(r:udm1389-udt353lv) Units=km Length=0.0162543 bus1=udt353lv.1.2 bus2=udm1389.1.2 switch=n enabled=y phases=2 Linecode=1P_UG_AL_2/0_Converse_0_416_0_2_2

New Line.l(r:p1ulv732-udt354lv) Units=km Length=0.0156297 bus1=udt354lv.1.2 bus2=p1ulv732.1.2 switch=n enabled=y phases=2 Linecode=1P_UG_AL_1/0_Brenau_0_416_0_2_2

New Line.l(r:p1ulv733-udm1392) Units=km Length=0.0203118 bus1=udm1392.1.2 bus2=p1ulv733.1.2 switch=n enabled=y phases=2 Linecode=1P_UG_AL_1/0_Brenau_0_416_0_2_2

New Line.l(r:udm1392-udt354lv) Units=km Length=0.00488415 bus1=udt354lv.1.2 bus2=udm1392.1.2 switch=n enabled=y phases=2 Linecode=1P_UG_AL_1/0_Brenau_0_416_0_2_2

New Line.l(r:p1ulv734-udt355lv) Units=km Length=0.0308871 bus1=udt355lv.1.2 bus2=p1ulv734.1.2 switch=n enabled=y phases=2 Linecode=1P_OH_AL_4/0_Zuzara_0_416_0_2_2

New Line.l(r:p1ulv735-udm1394) Units=km Length=0.0189279 bus1=udm1394.1.2 bus2=p1ulv735.1.2 switch=n enabled=y phases=2 Linecode=1P_OH_AL_2/0_Rucina_0_416_0_2_2

New Line.l(r:p1ulv736-udm1394) Units=km Length=0.0220809 bus1=udm1394.1.2 bus2=p1ulv736.1.2 switch=n enabled=y phases=2 Linecode=1P_OH_AL_2/0_Rucina_0_416_0_2_2

New Line.l(r:p1ulv738-udm1394) Units=km Length=0.0187271 bus1=udm1394.1.2 bus2=p1ulv738.1.2 switch=n enabled=y phases=2 Linecode=1P_OH_AL_2/0_Rucina_0_416_0_2_2

New Line.l(r:udm1394-udt355lv) Units=km Length=0.01947 bus1=udt355lv.1.2 bus2=udm1394.1.2 switch=n enabled=y phases=2 Linecode=1P_OH_AL_2/0_Rucina_0_416_0_2_2

New Line.l(r:p1ulv59408-udm1397) Units=km Length=0.0228568 bus1=udm1397.1.2 bus2=p1ulv59408.1.2 switch=n enabled=y phases=2 Linecode=1P_OH_AL_2/0_Rucina_0_416_0_2_2

New Line.l(r:udm1397-udt355lv) Units=km Length=0.0786033 bus1=udt355lv.1.2 bus2=udm1397.1.2 switch=n enabled=y phases=2 Linecode=1P_OH_AL_4/0_Zuzara_0_416_0_2_2

New Line.l(r:p1ulv741-udm1399) Units=km Length=0.0188472 bus1=udm1399.1.2 bus2=p1ulv741.1.2 switch=n enabled=y phases=2 Linecode=1P_UG_AL_1/0_Brenau_0_416_0_2_2

New Line.l(r:p1ulv737-udm1398) Units=km Length=0.0160836 bus1=udm1398.1.2 bus2=p1ulv737.1.2 switch=n enabled=y phases=2 Linecode=1P_UG_AL_1/0_Brenau_0_416_0_2_2

New Line.l(r:udm1398-udm1399) Units=km Length=0.0968794 bus1=udm1399.1.2 bus2=udm1398.1.2 switch=n enabled=y phases=2 Linecode=1P_UG_AL_1/0_Brenau_0_416_0_2_2

New Line.l(r:udm1399-udt356lv) Units=km Length=0.00854246 bus1=udt356lv.1.2 bus2=udm1399.1.2 switch=n enabled=y phases=2 Linecode=1P_UG_AL_2/0_Converse_0_416_0_2_2

New Line.l(r:p1ulv758-udt357lv) Units=km Length=0.0234241 bus1=udt357lv.1.2 bus2=p1ulv758.1.2 switch=n enabled=y phases=2 Linecode=1P_OH_AL_2/0_Rucina_0_416_0_2_2

New Line.l(r:p1ulv761-udt357lv) Units=km Length=0.0366279 bus1=udt357lv.1.2 bus2=p1ulv761.1.2 switch=n enabled=y phases=2 Linecode=1P_OH_AL_4/0_Zuzara_0_416_0_2_2

New Line.l(r:p1ulv739-udm1400) Units=km Length=0.023180200000000005 bus1=udm1400.1.2 bus2=p1ulv739.1.2 switch=n enabled=y phases=2 Linecode=1P_OH_AL_2/0_Rucina_0_416_0_2_2

New Line.l(r:p1ulv43648-udm1406) Units=km Length=0.0178701 bus1=udm1406.1.2 bus2=p1ulv43648.1.2 switch=n enabled=y phases=2 Linecode=1P_OH_AL_2/0_Rucina_0_416_0_2_2

New Line.l(r:udm1400-udm1406) Units=km Length=0.0156423 bus1=udm1400.1.2 bus2=udm1406.1.2 switch=n enabled=y phases=2 Linecode=1P_OH_AL_2/0_Rucina_0_416_0_2_2

New Line.l(r:udm1400-udt357lv) Units=km Length=0.0376341 bus1=udt357lv.1.2 bus2=udm1400.1.2 switch=n enabled=y phases=2 Linecode=1P_OH_AL_4/0_Zuzara_0_416_0_2_2

New Line.l(r:p1ulv755-udm1401) Units=km Length=0.060712 bus1=udm1401.1.2 bus2=p1ulv755.1.2 switch=n enabled=y phases=2 Linecode=1P_OH_AL_4/0_Zuzara_0_416_0_2_2

New Line.l(r:p1ulv759-udm1401) Units=km Length=0.0218544 bus1=udm1401.1.2 bus2=p1ulv759.1.2 switch=n enabled=y phases=2 Linecode=1P_OH_AL_2/0_Rucina_0_416_0_2_2

New Line.l(r:p1ulv760-udm1401) Units=km Length=0.03638090000000001 bus1=udm1401.1.2 bus2=p1ulv760.1.2 switch=n enabled=y phases=2 Linecode=1P_OH_AL_4/0_Zuzara_0_416_0_2_2

New Line.l(r:p1ulv54808-udm1407) Units=km Length=0.0285472 bus1=udm1407.1.2 bus2=p1ulv54808.1.2 switch=n enabled=y phases=2 Linecode=1P_OH_AL_4/0_Zuzara_0_416_0_2_2

New Line.l(r:udm1401-udm1407) Units=km Length=0.0189222 bus1=udm1401.1.2 bus2=udm1407.1.2 switch=n enabled=y phases=2 Linecode=1P_OH_AL_2/0_Rucina_0_416_0_2_2

New Line.l(r:udm1401-udt357lv) Units=km Length=0.0137698 bus1=udt357lv.1.2 bus2=udm1401.1.2 switch=n enabled=y phases=2 Linecode=1P_OH_AL_2/0_Rucina_0_416_0_2_2

New Line.l(r:p1ulv750-udm1409) Units=km Length=0.027318600000000002 bus1=udm1409.1.2 bus2=p1ulv750.1.2 switch=n enabled=y phases=2 Linecode=1P_UG_AL_1/0_Brenau_0_416_0_2_2

New Line.l(r:p1ulv751-udm1410) Units=km Length=0.0455369 bus1=udm1410.1.2 bus2=p1ulv751.1.2 switch=n enabled=y phases=2 Linecode=1P_UG_AL_1/0_Brenau_0_416_0_2_2

New Line.l(r:p1ulv753-udm1410) Units=km Length=0.0233976 bus1=udm1410.1.2 bus2=p1ulv753.1.2 switch=n enabled=y phases=2 Linecode=1P_UG_AL_1/0_Brenau_0_416_0_2_2

New Line.l(r:p1ulv752-udm1411) Units=km Length=0.0418906 bus1=udm1411.1.2 bus2=p1ulv752.1.2 switch=n enabled=y phases=2 Linecode=1P_UG_AL_1/0_Brenau_0_416_0_2_2

New Line.l(r:udm1410-udm1411) Units=km Length=0.00625826 bus1=udm1410.1.2 bus2=udm1411.1.2 switch=n enabled=y phases=2 Linecode=1P_UG_AL_1/0_Brenau_0_416_0_2_2

New Line.l(r:udm1409-udm1410) Units=km Length=0.008197470000000002 bus1=udm1409.1.2 bus2=udm1410.1.2 switch=n enabled=y phases=2 Linecode=1P_UG_AL_4/0_Sweetbriar_0_416_0_2_2

New Line.l(r:udm1409-udt358lv) Units=km Length=0.0081888 bus1=udt358lv.1.2 bus2=udm1409.1.2 switch=n enabled=y phases=2 Linecode=1P_UG_AL_4/0_Sweetbriar_0_416_0_2_2

New Line.l(r:p1ulv757-udm1414) Units=km Length=0.051166600000000007 bus1=udm1414.1.2 bus2=p1ulv757.1.2 switch=n enabled=y phases=2 Linecode=1P_UG_AL_1/0_Brenau_0_416_0_2_2

New Line.l(r:p1ulv754-udm1413) Units=km Length=0.0554409 bus1=udm1413.1.2 bus2=p1ulv754.1.2 switch=n enabled=y phases=2 Linecode=1P_UG_AL_1/0_Brenau_0_416_0_2_2

New Line.l(r:p1ulv740-udm1408) Units=km Length=0.0332677 bus1=udm1408.1.2 bus2=p1ulv740.1.2 switch=n enabled=y phases=2 Linecode=1P_UG_AL_2/0_Converse_0_416_0_2_2

New Line.l(r:udm1408-udm1413) Units=km Length=0.0170877 bus1=udm1413.1.2 bus2=udm1408.1.2 switch=n enabled=y phases=2 Linecode=1P_UG_AL_2/0_Converse_0_416_0_2_2

New Line.l(r:udm1413-udm1414) Units=km Length=0.024798100000000003 bus1=udm1414.1.2 bus2=udm1413.1.2 switch=n enabled=y phases=2 Linecode=1P_UG_AL_4/0_Sweetbriar_0_416_0_2_2

New Line.l(r:udm1414-udt358lv) Units=km Length=0.0081925 bus1=udt358lv.1.2 bus2=udm1414.1.2 switch=n enabled=y phases=2 Linecode=1P_UG_AL_4/0_Sweetbriar_0_416_0_2_2

New Line.l(r:p1ulv742-udm1415) Units=km Length=0.0313226 bus1=udm1415.1.2 bus2=p1ulv742.1.2 switch=n enabled=y phases=2 Linecode=1P_UG_AL_1/0_Brenau_0_416_0_2_2

New Line.l(r:p1ulv743-udm1415) Units=km Length=0.0165907 bus1=udm1415.1.2 bus2=p1ulv743.1.2 switch=n enabled=y phases=2 Linecode=1P_UG_AL_1/0_Brenau_0_416_0_2_2

New Line.l(r:udm1415-udt359lv) Units=km Length=0.0081888 bus1=udt359lv.1.2 bus2=udm1415.1.2 switch=n enabled=y phases=2 Linecode=1P_UG_AL_2/0_Converse_0_416_0_2_2

New Line.l(r:p1ulv745-udm1418) Units=km Length=0.0344406 bus1=udm1418.1.2 bus2=p1ulv745.1.2 switch=n enabled=y phases=2 Linecode=1P_UG_AL_1/0_Brenau_0_416_0_2_2

New Line.l(r:p1ulv744-udm1417) Units=km Length=0.0208165 bus1=udm1417.1.2 bus2=p1ulv744.1.2 switch=n enabled=y phases=2 Linecode=1P_UG_AL_1/0_Brenau_0_416_0_2_2

New Line.l(r:udm1417-udm1418) Units=km Length=0.00625826 bus1=udm1418.1.2 bus2=udm1417.1.2 switch=n enabled=y phases=2 Linecode=1P_UG_AL_1/0_Brenau_0_416_0_2_2

New Line.l(r:udm1418-udt359lv) Units=km Length=0.008197470000000002 bus1=udt359lv.1.2 bus2=udm1418.1.2 switch=n enabled=y phases=2 Linecode=1P_UG_AL_2/0_Converse_0_416_0_2_2

New Line.l(r:p1ulv747-udt360lv) Units=km Length=0.0347437 bus1=udt360lv.1.2 bus2=p1ulv747.1.2 switch=n enabled=y phases=2 Linecode=1P_UG_AL_1/0_Brenau_0_416_0_2_2

New Line.l(r:p1ulv746-udm1419) Units=km Length=0.025014100000000004 bus1=udm1419.1.2 bus2=p1ulv746.1.2 switch=n enabled=y phases=2 Linecode=1P_UG_AL_1/0_Brenau_0_416_0_2_2

New Line.l(r:udm1419-udt360lv) Units=km Length=0.00833235 bus1=udt360lv.1.2 bus2=udm1419.1.2 switch=n enabled=y phases=2 Linecode=1P_UG_AL_1/0_Brenau_0_416_0_2_2

New Line.l(r:p1ulv749-udm1422) Units=km Length=0.017563 bus1=udm1422.1.2 bus2=p1ulv749.1.2 switch=n enabled=y phases=2 Linecode=1P_UG_AL_1/0_Brenau_0_416_0_2_2

New Line.l(r:p1ulv748-udm1421) Units=km Length=0.0288212 bus1=udm1421.1.2 bus2=p1ulv748.1.2 switch=n enabled=y phases=2 Linecode=1P_UG_AL_1/0_Brenau_0_416_0_2_2
