New Line.l(r:p1ulv5429-udt2491lv) Units=km Length=0.02843 bus1=udt2491lv.1.2 bus2=p1ulv5429.1.2 switch=n enabled=y phases=2 Linecode=1P_UG_AL_1/0_Brenau_0_416_0_2_2

New Line.l(r:p1ulv5454-udm9881) Units=km Length=0.0279546 bus1=udm9881.1.2 bus2=p1ulv5454.1.2 switch=n enabled=y phases=2 Linecode=1P_UG_AL_1/0_Brenau_0_416_0_2_2

New Line.l(r:udm9881-udt2491lv) Units=km Length=0.0298048 bus1=udt2491lv.1.2 bus2=udm9881.1.2 switch=n enabled=y phases=2 Linecode=1P_UG_AL_1/0_Brenau_0_416_0_2_2

New Line.l(r:p1ulv30245-udm9882) Units=km Length=0.0292997 bus1=udm9882.1.2 bus2=p1ulv30245.1.2 switch=n enabled=y phases=2 Linecode=1P_UG_AL_1/0_Brenau_0_416_0_2_2

New Line.l(r:udm9882-udt2491lv) Units=km Length=0.01987 bus1=udt2491lv.1.2 bus2=udm9882.1.2 switch=n enabled=y phases=2 Linecode=1P_UG_AL_1/0_Brenau_0_416_0_2_2

New Line.l(r:p1ulv5430-udt2492lv) Units=km Length=0.022867 bus1=udt2492lv.1.2 bus2=p1ulv5430.1.2 switch=n enabled=y phases=2 Linecode=1P_OH_AL_2/0_Rucina_0_416_0_2_2

New Line.l(r:p1ulv42158-udm9884) Units=km Length=0.023126 bus1=udm9884.1.2 bus2=p1ulv42158.1.2 switch=n enabled=y phases=2 Linecode=1P_OH_AL_2/0_Rucina_0_416_0_2_2

New Line.l(r:udm9884-udt2492lv) Units=km Length=0.0151301 bus1=udt2492lv.1.2 bus2=udm9884.1.2 switch=n enabled=y phases=2 Linecode=1P_OH_AL_2/0_Rucina_0_416_0_2_2

New Line.l(r:p1ulv35237-udm9896) Units=km Length=0.0295087 bus1=udm9896.1.2 bus2=p1ulv35237.1.2 switch=n enabled=y phases=2 Linecode=1P_UG_AL_1/0_Brenau_0_416_0_2_2

New Line.l(r:udm9896-udt2498lv) Units=km Length=0.0298048 bus1=udt2498lv.1.2 bus2=udm9896.1.2 switch=n enabled=y phases=2 Linecode=1P_UG_AL_1/0_Brenau_0_416_0_2_2

New Line.l(r:p1ulv42368-udm9897) Units=km Length=0.031449 bus1=udm9897.1.2 bus2=p1ulv42368.1.2 switch=n enabled=y phases=2 Linecode=1P_UG_AL_1/0_Brenau_0_416_0_2_2

New Line.l(r:p1ulv5438-udm9895) Units=km Length=0.0360051 bus1=udm9895.1.2 bus2=p1ulv5438.1.2 switch=n enabled=y phases=2 Linecode=1P_UG_AL_1/0_Brenau_0_416_0_2_2

New Line.l(r:udm9895-udm9897) Units=km Length=0.009934840000000002 bus1=udm9897.1.2 bus2=udm9895.1.2 switch=n enabled=y phases=2 Linecode=1P_UG_AL_1/0_Brenau_0_416_0_2_2

New Line.l(r:udm9897-udt2498lv) Units=km Length=0.00993515 bus1=udt2498lv.1.2 bus2=udm9897.1.2 switch=n enabled=y phases=2 Linecode=1P_UG_AL_1/0_Brenau_0_416_0_2_2

New Line.l(r:p1ulv5447-udm9912) Units=km Length=0.0535236 bus1=udm9912.1.2 bus2=p1ulv5447.1.2 switch=n enabled=y phases=2 Linecode=1P_UG_AL_1/0_Brenau_0_416_0_2_2

New Line.l(r:udm9912-udt2505lv) Units=km Length=0.0191055 bus1=udt2505lv.1.2 bus2=udm9912.1.2 switch=n enabled=y phases=2 Linecode=1P_UG_AL_1/0_Brenau_0_416_0_2_2

New Line.l(r:p1ulv5477-udm9913) Units=km Length=0.0179123 bus1=udm9913.1.2 bus2=p1ulv5477.1.2 switch=n enabled=y phases=2 Linecode=1P_UG_AL_1/0_Brenau_0_416_0_2_2

New Line.l(r:udm9913-udt2505lv) Units=km Length=0.00955277 bus1=udt2505lv.1.2 bus2=udm9913.1.2 switch=n enabled=y phases=2 Linecode=1P_UG_AL_1/0_Brenau_0_416_0_2_2

New Line.l(r:p1ulv40569-udm9924) Units=km Length=0.0273632 bus1=udm9924.1.2 bus2=p1ulv40569.1.2 switch=n enabled=y phases=2 Linecode=1P_UG_AL_1/0_Brenau_0_416_0_2_2

New Line.l(r:p1ulv5455-udm9923) Units=km Length=0.027591300000000003 bus1=udm9923.1.2 bus2=p1ulv5455.1.2 switch=n enabled=y phases=2 Linecode=1P_UG_AL_1/0_Brenau_0_416_0_2_2

New Line.l(r:udm9923-udm9924) Units=km Length=0.009934840000000002 bus1=udm9924.1.2 bus2=udm9923.1.2 switch=n enabled=y phases=2 Linecode=1P_UG_AL_1/0_Brenau_0_416_0_2_2

New Line.l(r:udm9924-udt2510lv) Units=km Length=0.00993515 bus1=udt2510lv.1.2 bus2=udm9924.1.2 switch=n enabled=y phases=2 Linecode=1P_UG_AL_1/0_Brenau_0_416_0_2_2

New Line.l(r:p1ulv43816-udm9925) Units=km Length=0.0269503 bus1=udm9925.1.2 bus2=p1ulv43816.1.2 switch=n enabled=y phases=2 Linecode=1P_UG_AL_1/0_Brenau_0_416_0_2_2

New Line.l(r:udm9925-udt2510lv) Units=km Length=0.0198697 bus1=udt2510lv.1.2 bus2=udm9925.1.2 switch=n enabled=y phases=2 Linecode=1P_UG_AL_1/0_Brenau_0_416_0_2_2

New Line.l(r:p1ulv5457-udt2512lv) Units=km Length=0.0356759 bus1=udt2512lv.1.2 bus2=p1ulv5457.1.2 switch=n enabled=y phases=2 Linecode=1P_UG_AL_1/0_Brenau_0_416_0_2_2

New Line.l(r:p1ulv27827-udt2512lv) Units=km Length=0.0188966 bus1=udt2512lv.1.2 bus2=p1ulv27827.1.2 switch=n enabled=y phases=2 Linecode=1P_UG_AL_1/0_Brenau_0_416_0_2_2

New Line.l(r:p1ulv36804-udt2512lv) Units=km Length=0.00209608 bus1=udt2512lv.1.2 bus2=p1ulv36804.1.2 switch=n enabled=y phases=2 Linecode=1P_UG_AL_1/0_Brenau_0_416_0_2_2

New Line.l(r:p1ulv39505-udt2512lv) Units=km Length=0.0163913 bus1=udt2512lv.1.2 bus2=p1ulv39505.1.2 switch=n enabled=y phases=2 Linecode=1P_UG_AL_1/0_Brenau_0_416_0_2_2

New Line.l(r:p1ulv5458-udm9931) Units=km Length=0.055766300000000005 bus1=udm9931.1.2 bus2=p1ulv5458.1.2 switch=n enabled=y phases=2 Linecode=1P_UG_AL_1/0_Brenau_0_416_0_2_2

New Line.l(r:udm9931-udt2513lv) Units=km Length=0.0155954 bus1=udt2513lv.1.2 bus2=udm9931.1.2 switch=n enabled=y phases=2 Linecode=1P_UG_AL_1/0_Brenau_0_416_0_2_2

New Line.l(r:p1ulv5459-udm9932) Units=km Length=0.06869650000000001 bus1=udm9932.1.2 bus2=p1ulv5459.1.2 switch=n enabled=y phases=2 Linecode=1P_UG_AL_1/0_Brenau_0_416_0_2_2

New Line.l(r:udm9932-udt2513lv) Units=km Length=0.00889281 bus1=udt2513lv.1.2 bus2=udm9932.1.2 switch=n enabled=y phases=2 Linecode=1P_UG_AL_1/0_Brenau_0_416_0_2_2

New Line.l(r:p1ulv5473-udm9936) Units=km Length=0.0230071 bus1=udm9936.1.2 bus2=p1ulv5473.1.2 switch=n enabled=y phases=2 Linecode=1P_UG_AL_1/0_Brenau_0_416_0_2_2

New Line.l(r:p1ulv5461-udm9934) Units=km Length=0.0359293 bus1=udm9934.1.2 bus2=p1ulv5461.1.2 switch=n enabled=y phases=2 Linecode=1P_UG_AL_1/0_Brenau_0_416_0_2_2

New Line.l(r:p1ulv5462-udm9934) Units=km Length=0.031802 bus1=udm9934.1.2 bus2=p1ulv5462.1.2 switch=n enabled=y phases=2 Linecode=1P_UG_AL_1/0_Brenau_0_416_0_2_2

New Line.l(r:udm9934-udm9936) Units=km Length=0.0298464 bus1=udm9936.1.2 bus2=udm9934.1.2 switch=n enabled=y phases=2 Linecode=1P_UG_AL_1/0_Brenau_0_416_0_2_2

New Line.l(r:udm9936-udt2515lv) Units=km Length=0.00994548 bus1=udt2515lv.1.2 bus2=udm9936.1.2 switch=n enabled=y phases=2 Linecode=1P_UG_AL_4/0_Sweetbriar_0_416_0_2_2

New Line.l(r:p1ulv5476-udm9937) Units=km Length=0.0311608 bus1=udm9937.1.2 bus2=p1ulv5476.1.2 switch=n enabled=y phases=2 Linecode=1P_UG_AL_1/0_Brenau_0_416_0_2_2

New Line.l(r:p1ulv39151-udm9938) Units=km Length=0.0306365 bus1=udm9938.1.2 bus2=p1ulv39151.1.2 switch=n enabled=y phases=2 Linecode=1P_UG_AL_1/0_Brenau_0_416_0_2_2

New Line.l(r:udm9937-udm9938) Units=km Length=0.0294537 bus1=udm9937.1.2 bus2=udm9938.1.2 switch=n enabled=y phases=2 Linecode=1P_UG_AL_1/0_Brenau_0_416_0_2_2

New Line.l(r:udm9937-udt2515lv) Units=km Length=0.0199009 bus1=udt2515lv.1.2 bus2=udm9937.1.2 switch=n enabled=y phases=2 Linecode=1P_UG_AL_1/0_Brenau_0_416_0_2_2

New Line.l(r:p1ulv5463-udt2516lv) Units=km Length=0.0185637 bus1=udt2516lv.1.2 bus2=p1ulv5463.1.2 switch=n enabled=y phases=2 Linecode=1P_OH_AL_2/0_Rucina_0_416_0_2_2

New Line.l(r:p1ulv26838-udm9940) Units=km Length=0.0197409 bus1=udm9940.1.2 bus2=p1ulv26838.1.2 switch=n enabled=y phases=2 Linecode=1P_OH_AL_2/0_Rucina_0_416_0_2_2

New Line.l(r:p1ulv44460-udm9940) Units=km Length=0.0115263 bus1=udm9940.1.2 bus2=p1ulv44460.1.2 switch=n enabled=y phases=2 Linecode=1P_OH_AL_2/0_Rucina_0_416_0_2_2

New Line.l(r:udm9940-udt2516lv) Units=km Length=0.0189936 bus1=udt2516lv.1.2 bus2=udm9940.1.2 switch=n enabled=y phases=2 Linecode=1P_OH_AL_2/0_Rucina_0_416_0_2_2

New Line.l(r:p1ulv38494-udm9941) Units=km Length=0.018165800000000003 bus1=udm9941.1.2 bus2=p1ulv38494.1.2 switch=n enabled=y phases=2 Linecode=1P_OH_AL_2/0_Rucina_0_416_0_2_2

New Line.l(r:udm9941-udt2516lv) Units=km Length=0.0380074 bus1=udt2516lv.1.2 bus2=udm9941.1.2 switch=n enabled=y phases=2 Linecode=1P_OH_AL_4/0_Zuzara_0_416_0_2_2

New Line.l(r:p1ulv5464-udm9943) Units=km Length=0.025913900000000004 bus1=udm9943.1.2 bus2=p1ulv5464.1.2 switch=n enabled=y phases=2 Linecode=1P_UG_AL_1/0_Brenau_0_416_0_2_2

New Line.l(r:udm9943-udt2517lv) Units=km Length=0.0185765 bus1=udt2517lv.1.2 bus2=udm9943.1.2 switch=n enabled=y phases=2 Linecode=1P_UG_AL_1/0_Brenau_0_416_0_2_2

New Line.l(r:p1ulv30138-udm9944) Units=km Length=0.0236838 bus1=udm9944.1.2 bus2=p1ulv30138.1.2 switch=n enabled=y phases=2 Linecode=1P_UG_AL_1/0_Brenau_0_416_0_2_2

New Line.l(r:udm9944-udt2517lv) Units=km Length=0.0185765 bus1=udt2517lv.1.2 bus2=udm9944.1.2 switch=n enabled=y phases=2 Linecode=1P_UG_AL_1/0_Brenau_0_416_0_2_2

New Line.l(r:p1ulv37031-udt2518lv) Units=km Length=0.0160807 bus1=udt2518lv.1.2 bus2=p1ulv37031.1.2 switch=n enabled=y phases=2 Linecode=1P_OH_AL_2/0_Rucina_0_416_0_2_2

New Line.l(r:p1ulv5465-udm9945) Units=km Length=0.0165937 bus1=udm9945.1.2 bus2=p1ulv5465.1.2 switch=n enabled=y phases=2 Linecode=1P_OH_AL_2/0_Rucina_0_416_0_2_2

New Line.l(r:udm9945-udt2518lv) Units=km Length=0.0117624 bus1=udt2518lv.1.2 bus2=udm9945.1.2 switch=n enabled=y phases=2 Linecode=1P_OH_AL_2/0_Rucina_0_416_0_2_2

New Line.l(r:p1ulv5466-udt2519lv) Units=km Length=0.033271 bus1=udt2519lv.1.2 bus2=p1ulv5466.1.2 switch=n enabled=y phases=2 Linecode=1P_OH_AL_4/0_Zuzara_0_416_0_2_2

New Line.l(r:p1ulv32990-udt2519lv) Units=km Length=0.04994 bus1=udt2519lv.1.2 bus2=p1ulv32990.1.2 switch=n enabled=y phases=2 Linecode=1P_OH_AL_4/0_Zuzara_0_416_0_2_2

New Line.l(r:p1ulv38028-udt2519lv) Units=km Length=0.023942800000000004 bus1=udt2519lv.1.2 bus2=p1ulv38028.1.2 switch=n enabled=y phases=2 Linecode=1P_OH_AL_2/0_Rucina_0_416_0_2_2

New Line.l(r:p1ulv26247-udm9951) Units=km Length=0.0149493 bus1=udm9951.1.2 bus2=p1ulv26247.1.2 switch=n enabled=y phases=2 Linecode=1P_OH_AL_2/0_Rucina_0_416_0_2_2

New Line.l(r:p1ulv30493-udm9951) Units=km Length=0.0192734 bus1=udm9951.1.2 bus2=p1ulv30493.1.2 switch=n enabled=y phases=2 Linecode=1P_OH_AL_2/0_Rucina_0_416_0_2_2

New Line.l(r:p1ulv36314-udm9951) Units=km Length=0.0160305 bus1=udm9951.1.2 bus2=p1ulv36314.1.2 switch=n enabled=y phases=2 Linecode=1P_OH_AL_2/0_Rucina_0_416_0_2_2

New Line.l(r:udm9951-udt2520lv) Units=km Length=0.0190036 bus1=udt2520lv.1.2 bus2=udm9951.1.2 switch=n enabled=y phases=2 Linecode=1P_OH_AL_2/0_Rucina_0_416_0_2_2

New Line.l(r:p1ulv34562-udm9953) Units=km Length=0.0110841 bus1=udm9953.1.2 bus2=p1ulv34562.1.2 switch=n enabled=y phases=2 Linecode=1P_OH_AL_2/0_Rucina_0_416_0_2_2

New Line.l(r:p1ulv5467-udm9950) Units=km Length=0.0156431 bus1=udm9950.1.2 bus2=p1ulv5467.1.2 switch=n enabled=y phases=2 Linecode=1P_OH_AL_2/0_Rucina_0_416_0_2_2

New Line.l(r:udm9950-udm9953) Units=km Length=0.0529593 bus1=udm9953.1.2 bus2=udm9950.1.2 switch=n enabled=y phases=2 Linecode=1P_OH_AL_4/0_Zuzara_0_416_0_2_2

New Line.l(r:udm9953-udt2520lv) Units=km Length=0.0190038 bus1=udt2520lv.1.2 bus2=udm9953.1.2 switch=n enabled=y phases=2 Linecode=1P_OH_AL_2/0_Rucina_0_416_0_2_2

New Line.l(r:p1ulv5468-udm9955) Units=km Length=0.02159 bus1=udm9955.1.2 bus2=p1ulv5468.1.2 switch=n enabled=y phases=2 Linecode=1P_OH_AL_2/0_Rucina_0_416_0_2_2

New Line.l(r:p1ulv45571-udm9957) Units=km Length=0.022556100000000003 bus1=udm9957.1.2 bus2=p1ulv45571.1.2 switch=n enabled=y phases=2 Linecode=1P_OH_AL_2/0_Rucina_0_416_0_2_2

New Line.l(r:udm9955-udm9957) Units=km Length=0.0173306 bus1=udm9955.1.2 bus2=udm9957.1.2 switch=n enabled=y phases=2 Linecode=1P_OH_AL_2/0_Rucina_0_416_0_2_2

New Line.l(r:udm9955-udt2521lv) Units=km Length=0.0173305 bus1=udt2521lv.1.2 bus2=udm9955.1.2 switch=n enabled=y phases=2 Linecode=1P_OH_AL_2/0_Rucina_0_416_0_2_2

New Line.l(r:p1ulv32778-udm9956) Units=km Length=0.0237848 bus1=udm9956.1.2 bus2=p1ulv32778.1.2 switch=n enabled=y phases=2 Linecode=1P_OH_AL_2/0_Rucina_0_416_0_2_2

New Line.l(r:udm9956-udt2521lv) Units=km Length=0.0360004 bus1=udt2521lv.1.2 bus2=udm9956.1.2 switch=n enabled=y phases=2 Linecode=1P_OH_AL_4/0_Zuzara_0_416_0_2_2

New Line.l(r:p1ulv5469-udm9958) Units=km Length=0.0355637 bus1=udm9958.1.2 bus2=p1ulv5469.1.2 switch=n enabled=y phases=2 Linecode=1P_UG_AL_1/0_Brenau_0_416_0_2_2

New Line.l(r:udm9958-udt2522lv) Units=km Length=0.00994548 bus1=udt2522lv.1.2 bus2=udm9958.1.2 switch=n enabled=y phases=2 Linecode=1P_OH_AL_2/0_Rucina_0_416_0_2_2

New Line.l(r:p1ulv38478-udm9959) Units=km Length=0.012580900000000002 bus1=udm9959.1.2 bus2=p1ulv38478.1.2 switch=n enabled=y phases=2 Linecode=1P_OH_AL_2/0_Rucina_0_416_0_2_2

New Line.l(r:udm9959-udt2522lv) Units=km Length=0.0420752 bus1=udt2522lv.1.2 bus2=udm9959.1.2 switch=n enabled=y phases=2 Linecode=1P_OH_AL_4/0_Zuzara_0_416_0_2_2

New Line.l(r:p1ulv5475-udt2525lv) Units=km Length=0.0179245 bus1=udt2525lv.1.2 bus2=p1ulv5475.1.2 switch=n enabled=y phases=2 Linecode=1P_OH_AL_2/0_Rucina_0_416_0_2_2

New Line.l(r:p1ulv43954-udt2525lv) Units=km Length=0.0170651 bus1=udt2525lv.1.2 bus2=p1ulv43954.1.2 switch=n enabled=y phases=2 Linecode=1P_OH_AL_2/0_Rucina_0_416_0_2_2

New Line.l(r:p1ulv33354-udm9968) Units=km Length=0.0165766 bus1=udm9968.1.2 bus2=p1ulv33354.1.2 switch=n enabled=y phases=2 Linecode=1P_OH_AL_2/0_Rucina_0_416_0_2_2

New Line.l(r:p1ulv29063-udm9967) Units=km Length=0.018128 bus1=udm9967.1.2 bus2=p1ulv29063.1.2 switch=n enabled=y phases=2 Linecode=1P_OH_AL_2/0_Rucina_0_416_0_2_2

New Line.l(r:udm9967-udm9968) Units=km Length=0.018092900000000002 bus1=udm9968.1.2 bus2=udm9967.1.2 switch=n enabled=y phases=2 Linecode=1P_OH_AL_2/0_Rucina_0_416_0_2_2

New Line.l(r:udm9968-udt2525lv) Units=km Length=0.018093800000000004 bus1=udt2525lv.1.2 bus2=udm9968.1.2 switch=n enabled=y phases=2 Linecode=1P_OH_AL_2/0_Rucina_0_416_0_2_2

New Line.l(r:p1ulv47546-udm9970) Units=km Length=0.0177086 bus1=udm9970.1.2 bus2=p1ulv47546.1.2 switch=n enabled=y phases=2 Linecode=1P_OH_AL_2/0_Rucina_0_416_0_2_2

New Line.l(r:udm9970-udt2525lv) Units=km Length=0.0418057 bus1=udt2525lv.1.2 bus2=udm9970.1.2 switch=n enabled=y phases=2 Linecode=1P_OH_AL_4/0_Zuzara_0_416_0_2_2

New Line.l(r:p1ulv5478-udt2526lv) Units=km Length=0.0282106 bus1=udt2526lv.1.2 bus2=p1ulv5478.1.2 switch=n enabled=y phases=2 Linecode=1P_OH_AL_4/0_Zuzara_0_416_0_2_2

New Line.l(r:p1ulv33776-udt2526lv) Units=km Length=0.0360653 bus1=udt2526lv.1.2 bus2=p1ulv33776.1.2 switch=n enabled=y phases=2 Linecode=1P_OH_AL_4/0_Zuzara_0_416_0_2_2

New Line.l(r:p1ulv47364-udt2526lv) Units=km Length=0.024800000000000003 bus1=udt2526lv.1.2 bus2=p1ulv47364.1.2 switch=n enabled=y phases=2 Linecode=1P_OH_AL_2/0_Rucina_0_416_0_2_2

New Line.l(r:p1ulv31343-udt2527lv) Units=km Length=0.0181304 bus1=udt2527lv.1.2 bus2=p1ulv31343.1.2 switch=n enabled=y phases=2 Linecode=1P_OH_AL_2/0_Rucina_0_416_0_2_2

New Line.l(r:p1ulv5479-udm9974) Units=km Length=0.0179041 bus1=udm9974.1.2 bus2=p1ulv5479.1.2 switch=n enabled=y phases=2 Linecode=1P_OH_AL_2/0_Rucina_0_416_0_2_2

New Line.l(r:p1ulv26458-udm9974) Units=km Length=0.0158954 bus1=udm9974.1.2 bus2=p1ulv26458.1.2 switch=n enabled=y phases=2 Linecode=1P_OH_AL_2/0_Rucina_0_416_0_2_2

New Line.l(r:udm9974-udt2527lv) Units=km Length=0.018100400000000003 bus1=udt2527lv.1.2 bus2=udm9974.1.2 switch=n enabled=y phases=2 Linecode=1P_OH_AL_2/0_Rucina_0_416_0_2_2

New Line.l(r:p1ulv27693-udm9976) Units=km Length=0.0143916 bus1=udm9976.1.2 bus2=p1ulv27693.1.2 switch=n enabled=y phases=2 Linecode=1P_OH_AL_2/0_Rucina_0_416_0_2_2

New Line.l(r:p1ulv36534-udm9976) Units=km Length=0.0194342 bus1=udm9976.1.2 bus2=p1ulv36534.1.2 switch=n enabled=y phases=2 Linecode=1P_OH_AL_2/0_Rucina_0_416_0_2_2

New Line.l(r:udm9976-udt2527lv) Units=km Length=0.0391361 bus1=udt2527lv.1.2 bus2=udm9976.1.2 switch=n enabled=y phases=2 Linecode=1P_OH_AL_4/0_Zuzara_0_416_0_2_2

New Line.l(r:p1ulv5480-udt2528lv) Units=km Length=0.029811500000000005 bus1=udt2528lv.1.2 bus2=p1ulv5480.1.2 switch=n enabled=y phases=2 Linecode=1P_OH_AL_4/0_Zuzara_0_416_0_2_2

New Line.l(r:p1ulv26902-udt2528lv) Units=km Length=0.0250999 bus1=udt2528lv.1.2 bus2=p1ulv26902.1.2 switch=n enabled=y phases=2 Linecode=1P_OH_AL_2/0_Rucina_0_416_0_2_2

New Line.l(r:p1ulv5482-udm9981) Units=km Length=0.05307980000000001 bus1=udm9981.1.2 bus2=p1ulv5482.1.2 switch=n enabled=y phases=2 Linecode=1P_UG_AL_1/0_Brenau_0_416_0_2_2

New Line.l(r:udm9981-udt2529lv) Units=km Length=0.009281410000000002 bus1=udt2529lv.1.2 bus2=udm9981.1.2 switch=n enabled=y phases=2 Linecode=1P_UG_AL_1/0_Brenau_0_416_0_2_2

New Line.l(r:p1ulv5504-udm9982) Units=km Length=0.0273916 bus1=udm9982.1.2 bus2=p1ulv5504.1.2 switch=n enabled=y phases=2 Linecode=1P_UG_AL_4/0_Sweetbriar_0_416_0_2_2

New Line.l(r:udm9982-udt2529lv) Units=km Length=0.009281910000000003 bus1=udt2529lv.1.2 bus2=udm9982.1.2 switch=n enabled=y phases=2 Linecode=1P_UG_AL_4/0_Sweetbriar_0_416_0_2_2

New Line.l(r:p1ulv35269-udt2531lv) Units=km Length=0.0514275 bus1=udt2531lv.1.2 bus2=p1ulv35269.1.2 switch=n enabled=y phases=2 Linecode=1P_OH_AL_4/0_Zuzara_0_416_0_2_2

New Line.l(r:p1ulv5485-udm9989) Units=km Length=0.0292734 bus1=udm9989.1.2 bus2=p1ulv5485.1.2 switch=n enabled=y phases=2 Linecode=1P_OH_AL_4/0_Zuzara_0_416_0_2_2

New Line.l(r:p1ulv5492-udm9989) Units=km Length=0.0130051 bus1=udm9989.1.2 bus2=p1ulv5492.1.2 switch=n enabled=y phases=2 Linecode=1P_OH_AL_2/0_Rucina_0_416_0_2_2

New Line.l(r:udm9989-udt2531lv) Units=km Length=0.030305000000000002 bus1=udt2531lv.1.2 bus2=udm9989.1.2 switch=n enabled=y phases=2 Linecode=1P_OH_AL_4/0_Zuzara_0_416_0_2_2

New Line.l(r:p1ulv41021-udm9992) Units=km Length=0.055014200000000006 bus1=udm9992.1.2 bus2=p1ulv41021.1.2 switch=n enabled=y phases=2 Linecode=1P_OH_AL_4/0_Zuzara_0_416_0_2_2

New Line.l(r:p1ulv44268-udm9992) Units=km Length=0.037769 bus1=udm9992.1.2 bus2=p1ulv44268.1.2 switch=n enabled=y phases=2 Linecode=1P_OH_AL_4/0_Zuzara_0_416_0_2_2

New Line.l(r:udm9992-udt2531lv) Units=km Length=0.00839412 bus1=udt2531lv.1.2 bus2=udm9992.1.2 switch=n enabled=y phases=2 Linecode=1P_OH_AL_2/0_Rucina_0_416_0_2_2

New Line.l(r:p1ulv30065-udt2535lv) Units=km Length=0.0318003 bus1=udt2535lv.1.2 bus2=p1ulv30065.1.2 switch=n enabled=y phases=2 Linecode=1P_UG_AL_1/0_Brenau_0_416_0_2_2

New Line.l(r:p1ulv36471-udt2535lv) Units=km Length=0.022654500000000004 bus1=udt2535lv.1.2 bus2=p1ulv36471.1.2 switch=n enabled=y phases=2 Linecode=1P_UG_AL_1/0_Brenau_0_416_0_2_2

New Line.l(r:p1ulv5489-udm10000) Units=km Length=0.0123325 bus1=udm10000.1.2 bus2=p1ulv5489.1.2 switch=n enabled=y phases=2 Linecode=1P_UG_AL_1/0_Brenau_0_416_0_2_2

New Line.l(r:p1ulv26046-udm10001) Units=km Length=0.0514106 bus1=udm10001.1.2 bus2=p1ulv26046.1.2 switch=n enabled=y phases=2 Linecode=1P_UG_AL_1/0_Brenau_0_416_0_2_2

New Line.l(r:p1ulv45662-udm10005) Units=km Length=0.0115179 bus1=udm10005.1.2 bus2=p1ulv45662.1.2 switch=n enabled=y phases=2 Linecode=1P_UG_AL_1/0_Brenau_0_416_0_2_2

New Line.l(r:udm10001-udm10005) Units=km Length=0.00970062 bus1=udm10001.1.2 bus2=udm10005.1.2 switch=n enabled=y phases=2 Linecode=1P_UG_AL_1/0_Brenau_0_416_0_2_2

New Line.l(r:udm10000-udm10001) Units=km Length=0.009710510000000002 bus1=udm10000.1.2 bus2=udm10001.1.2 switch=n enabled=y phases=2 Linecode=1P_UG_AL_2/0_Converse_0_416_0_2_2

New Line.l(r:udm10000-udt2535lv) Units=km Length=0.009710620000000001 bus1=udt2535lv.1.2 bus2=udm10000.1.2 switch=n enabled=y phases=2 Linecode=1P_UG_AL_4/0_Sweetbriar_0_416_0_2_2

New Line.l(r:p1ulv41163-udm10004) Units=km Length=0.0373889 bus1=udm10004.1.2 bus2=p1ulv41163.1.2 switch=n enabled=y phases=2 Linecode=1P_UG_AL_1/0_Brenau_0_416_0_2_2

New Line.l(r:udm10004-udt2535lv) Units=km Length=0.0679643 bus1=udt2535lv.1.2 bus2=udm10004.1.2 switch=n enabled=y phases=2 Linecode=1P_UG_AL_1/0_Brenau_0_416_0_2_2

New Line.l(r:p1ulv5490-udm10006) Units=km Length=0.0292003 bus1=udm10006.1.2 bus2=p1ulv5490.1.2 switch=n enabled=y phases=2 Linecode=1P_UG_AL_1/0_Brenau_0_416_0_2_2

New Line.l(r:udm10006-udt2536lv) Units=km Length=0.0188536 bus1=udt2536lv.1.2 bus2=udm10006.1.2 switch=n enabled=y phases=2 Linecode=1P_UG_AL_1/0_Brenau_0_416_0_2_2

New Line.l(r:p1ulv28111-udm10007) Units=km Length=0.0304801 bus1=udm10007.1.2 bus2=p1ulv28111.1.2 switch=n enabled=y phases=2 Linecode=1P_UG_AL_1/0_Brenau_0_416_0_2_2

New Line.l(r:udm10007-udt2536lv) Units=km Length=0.0188636 bus1=udt2536lv.1.2 bus2=udm10007.1.2 switch=n enabled=y phases=2 Linecode=1P_UG_AL_1/0_Brenau_0_416_0_2_2

New Line.l(r:p1ulv32044-udm10009) Units=km Length=0.0557921 bus1=udm10009.1.2 bus2=p1ulv32044.1.2 switch=n enabled=y phases=2 Linecode=1P_UG_AL_1/0_Brenau_0_416_0_2_2

New Line.l(r:p1ulv5491-udm10008) Units=km Length=0.0292562 bus1=udm10008.1.2 bus2=p1ulv5491.1.2 switch=n enabled=y phases=2 Linecode=1P_UG_AL_1/0_Brenau_0_416_0_2_2

New Line.l(r:udm10008-udm10009) Units=km Length=0.0194112 bus1=udm10009.1.2 bus2=udm10008.1.2 switch=n enabled=y phases=2 Linecode=1P_UG_AL_1/0_Brenau_0_416_0_2_2

New Line.l(r:udm10009-udt2537lv) Units=km Length=0.009710620000000001 bus1=udt2537lv.1.2 bus2=udm10009.1.2 switch=n enabled=y phases=2 Linecode=1P_UG_AL_1/0_Brenau_0_416_0_2_2

New Line.l(r:p1ulv39443-udm10010) Units=km Length=0.0260232 bus1=udm10010.1.2 bus2=p1ulv39443.1.2 switch=n enabled=y phases=2 Linecode=1P_UG_AL_1/0_Brenau_0_416_0_2_2

New Line.l(r:udm10010-udt2537lv) Units=km Length=0.0388324 bus1=udt2537lv.1.2 bus2=udm10010.1.2 switch=n enabled=y phases=2 Linecode=1P_UG_AL_1/0_Brenau_0_416_0_2_2

New Line.l(r:p1ulv44591-udt2541lv) Units=km Length=0.0299786 bus1=udt2541lv.1.2 bus2=p1ulv44591.1.2 switch=n enabled=y phases=2 Linecode=1P_UG_AL_1/0_Brenau_0_416_0_2_2

New Line.l(r:p1ulv5497-udm10018) Units=km Length=0.0306861 bus1=udm10018.1.2 bus2=p1ulv5497.1.2 switch=n enabled=y phases=2 Linecode=1P_UG_AL_1/0_Brenau_0_416_0_2_2

New Line.l(r:udm10018-udt2541lv) Units=km Length=0.0268107 bus1=udt2541lv.1.2 bus2=udm10018.1.2 switch=n enabled=y phases=2 Linecode=1P_UG_AL_1/0_Brenau_0_416_0_2_2

New Line.l(r:p1ulv39510-udm10019) Units=km Length=0.030031400000000003 bus1=udm10019.1.2 bus2=p1ulv39510.1.2 switch=n enabled=y phases=2 Linecode=1P_UG_AL_1/0_Brenau_0_416_0_2_2

New Line.l(r:udm10019-udt2541lv) Units=km Length=0.00893027 bus1=udt2541lv.1.2 bus2=udm10019.1.2 switch=n enabled=y phases=2 Linecode=1P_UG_AL_1/0_Brenau_0_416_0_2_2

New Line.l(r:p1ulv5500-udm10022) Units=km Length=0.0298124 bus1=udm10022.1.2 bus2=p1ulv5500.1.2 switch=n enabled=y phases=2 Linecode=1P_UG_AL_1/0_Brenau_0_416_0_2_2

New Line.l(r:udm10022-udt2543lv) Units=km Length=0.009560130000000002 bus1=udt2543lv.1.2 bus2=udm10022.1.2 switch=n enabled=y phases=2 Linecode=1P_UG_AL_1/0_Brenau_0_416_0_2_2

New Line.l(r:p1ulv50880-udm10023) Units=km Length=0.02217 bus1=udm10023.1.2 bus2=p1ulv50880.1.2 switch=n enabled=y phases=2 Linecode=1P_UG_AL_1/0_Brenau_0_416_0_2_2

New Line.l(r:udm10023-udt2543lv) Units=km Length=0.009550130000000002 bus1=udt2543lv.1.2 bus2=udm10023.1.2 switch=n enabled=y phases=2 Linecode=1P_UG_AL_1/0_Brenau_0_416_0_2_2

New Line.l(r:p1ulv15561-udt3216lv) Units=km Length=0.0297721 bus1=udt3216lv.1.2 bus2=p1ulv15561.1.2 switch=n enabled=y phases=2 Linecode=1P_OH_AL_4/0_Zuzara_0_416_0_2_2

New Line.l(r:p1ulv7113-udm12619) Units=km Length=0.0312754 bus1=udm12619.1.2 bus2=p1ulv7113.1.2 switch=n enabled=y phases=2 Linecode=1P_OH_AL_4/0_Zuzara_0_416_0_2_2

New Line.l(r:udm12619-udt3216lv) Units=km Length=0.0182657 bus1=udt3216lv.1.2 bus2=udm12619.1.2 switch=n enabled=y phases=2 Linecode=1P_OH_AL_2/0_Rucina_0_416_0_2_2

New Line.l(r:p1ulv7998-udt3657lv) Units=km Length=0.0203147 bus1=udt3657lv.1.2 bus2=p1ulv7998.1.2 switch=n enabled=y phases=2 Linecode=1P_UG_AL_1/0_Brenau_0_416_0_2_2

New Line.l(r:p1ulv18380-udm14264) Units=km Length=0.019881 bus1=udm14264.1.2 bus2=p1ulv18380.1.2 switch=n enabled=y phases=2 Linecode=1P_UG_AL_1/0_Brenau_0_416_0_2_2

New Line.l(r:udm14264-udt3657lv) Units=km Length=0.0680525 bus1=udt3657lv.1.2 bus2=udm14264.1.2 switch=n enabled=y phases=2 Linecode=1P_UG_AL_1/0_Brenau_0_416_0_2_2

New Line.l(r:p1ulv29153-udm14265) Units=km Length=0.0213932 bus1=udm14265.1.2 bus2=p1ulv29153.1.2 switch=n enabled=y phases=2 Linecode=1P_UG_AL_1/0_Brenau_0_416_0_2_2

New Line.l(r:udm14265-udt3657lv) Units=km Length=0.00925148 bus1=udt3657lv.1.2 bus2=udm14265.1.2 switch=n enabled=y phases=2 Linecode=1P_UG_AL_1/0_Brenau_0_416_0_2_2

New Line.l(r:p1ulv8036-udt3691lv) Units=km Length=0.022603400000000003 bus1=udt3691lv.1.2 bus2=p1ulv8036.1.2 switch=n enabled=y phases=2 Linecode=1P_UG_AL_1/0_Brenau_0_416_0_2_2

New Line.l(r:p1ulv26427-udt3691lv) Units=km Length=0.0311808 bus1=udt3691lv.1.2 bus2=p1ulv26427.1.2 switch=n enabled=y phases=2 Linecode=1P_UG_AL_1/0_Brenau_0_416_0_2_2

New Line.l(r:p1ulv40815-udt3691lv) Units=km Length=0.028441900000000003 bus1=udt3691lv.1.2 bus2=p1ulv40815.1.2 switch=n enabled=y phases=2 Linecode=1P_UG_AL_1/0_Brenau_0_416_0_2_2

New Line.l(r:p1ulv37731-udm14357) Units=km Length=0.0227327 bus1=udm14357.1.2 bus2=p1ulv37731.1.2 switch=n enabled=y phases=2 Linecode=1P_UG_AL_1/0_Brenau_0_416_0_2_2

New Line.l(r:udm14357-udt3691lv) Units=km Length=0.0197539 bus1=udt3691lv.1.2 bus2=udm14357.1.2 switch=n enabled=y phases=2 Linecode=1P_UG_AL_1/0_Brenau_0_416_0_2_2

New Line.l(r:p1ulv39028-udm14358) Units=km Length=0.0281555 bus1=udm14358.1.2 bus2=p1ulv39028.1.2 switch=n enabled=y phases=2 Linecode=1P_UG_AL_1/0_Brenau_0_416_0_2_2

New Line.l(r:udm14358-udt3691lv) Units=km Length=0.039527 bus1=udt3691lv.1.2 bus2=udm14358.1.2 switch=n enabled=y phases=2 Linecode=1P_UG_AL_1/0_Brenau_0_416_0_2_2

New Line.l(r:p1ulv8037-udm14360) Units=km Length=0.03388970000000001 bus1=udm14360.1.2 bus2=p1ulv8037.1.2 switch=n enabled=y phases=2 Linecode=1P_UG_AL_1/0_Brenau_0_416_0_2_2

New Line.l(r:udm14360-udt3692lv) Units=km Length=0.009934840000000002 bus1=udt3692lv.1.2 bus2=udm14360.1.2 switch=n enabled=y phases=2 Linecode=1P_UG_AL_1/0_Brenau_0_416_0_2_2

New Line.l(r:p1ulv8038-udm14361) Units=km Length=0.0364706 bus1=udm14361.1.2 bus2=p1ulv8038.1.2 switch=n enabled=y phases=2 Linecode=1P_UG_AL_1/0_Brenau_0_416_0_2_2

New Line.l(r:udm14361-udt3692lv) Units=km Length=0.00993515 bus1=udt3692lv.1.2 bus2=udm14361.1.2 switch=n enabled=y phases=2 Linecode=1P_UG_AL_1/0_Brenau_0_416_0_2_2

New Line.l(r:p1ulv8040-udt3694lv) Units=km Length=0.0134309 bus1=udt3694lv.1.2 bus2=p1ulv8040.1.2 switch=n enabled=y phases=2 Linecode=1P_UG_AL_2/0_Converse_0_416_0_2_2

New Line.l(r:p1ulv8043-udm14366) Units=km Length=0.038803 bus1=udm14366.1.2 bus2=p1ulv8043.1.2 switch=n enabled=y phases=2 Linecode=1P_UG_AL_1/0_Brenau_0_416_0_2_2

New Line.l(r:p1ulv45937-udm14368) Units=km Length=0.0159382 bus1=udm14368.1.2 bus2=p1ulv45937.1.2 switch=n enabled=y phases=2 Linecode=1P_UG_AL_1/0_Brenau_0_416_0_2_2

New Line.l(r:udm14366-udm14368) Units=km Length=0.0344319 bus1=udm14366.1.2 bus2=udm14368.1.2 switch=n enabled=y phases=2 Linecode=1P_UG_AL_1/0_Brenau_0_416_0_2_2

New Line.l(r:udm14366-udt3697lv) Units=km Length=0.0198788 bus1=udt3697lv.1.2 bus2=udm14366.1.2 switch=n enabled=y phases=2 Linecode=1P_OH_AL_2/0_Rucina_0_416_0_2_2

New Line.l(r:p1ulv36709-udm14367) Units=km Length=0.0373972 bus1=udm14367.1.2 bus2=p1ulv36709.1.2 switch=n enabled=y phases=2 Linecode=1P_OH_AL_4/0_Zuzara_0_416_0_2_2

New Line.l(r:udm14367-udt3697lv) Units=km Length=0.0198887 bus1=udt3697lv.1.2 bus2=udm14367.1.2 switch=n enabled=y phases=2 Linecode=1P_OH_AL_2/0_Rucina_0_416_0_2_2

New Line.l(r:p1ulv29036-udt3702lv) Units=km Length=0.0254107 bus1=udt3702lv.1.2 bus2=p1ulv29036.1.2 switch=n enabled=y phases=2 Linecode=1P_UG_AL_1/0_Brenau_0_416_0_2_2

New Line.l(r:p1ulv8048-udm14375) Units=km Length=0.028217500000000003 bus1=udm14375.1.2 bus2=p1ulv8048.1.2 switch=n enabled=y phases=2 Linecode=1P_UG_AL_1/0_Brenau_0_416_0_2_2

New Line.l(r:udm14375-udt3702lv) Units=km Length=0.008789 bus1=udt3702lv.1.2 bus2=udm14375.1.2 switch=n enabled=y phases=2 Linecode=1P_UG_AL_1/0_Brenau_0_416_0_2_2

New Line.l(r:p1ulv34729-udm14377) Units=km Length=0.0318672 bus1=udm14377.1.2 bus2=p1ulv34729.1.2 switch=n enabled=y phases=2 Linecode=1P_OH_AL_4/0_Zuzara_0_416_0_2_2

New Line.l(r:udm14377-udt3702lv) Units=km Length=0.0221761 bus1=udt3702lv.1.2 bus2=udm14377.1.2 switch=n enabled=y phases=2 Linecode=1P_OH_AL_2/0_Rucina_0_416_0_2_2

New Line.l(r:p1ulv36153-udt3703lv) Units=km Length=0.0316922 bus1=udt3703lv.1.2 bus2=p1ulv36153.1.2 switch=n enabled=y phases=2 Linecode=1P_UG_AL_1/0_Brenau_0_416_0_2_2

New Line.l(r:p1ulv8049-udm14378) Units=km Length=0.0316586 bus1=udm14378.1.2 bus2=p1ulv8049.1.2 switch=n enabled=y phases=2 Linecode=1P_UG_AL_1/0_Brenau_0_416_0_2_2

New Line.l(r:udm14378-udt3703lv) Units=km Length=0.00988693 bus1=udt3703lv.1.2 bus2=udm14378.1.2 switch=n enabled=y phases=2 Linecode=1P_UG_AL_1/0_Brenau_0_416_0_2_2

New Line.l(r:p1ulv8061-udm14399) Units=km Length=0.0205629 bus1=udm14399.1.2 bus2=p1ulv8061.1.2 switch=n enabled=y phases=2 Linecode=1P_OH_AL_2/0_Rucina_0_416_0_2_2

New Line.l(r:p1ulv26871-udm14399) Units=km Length=0.00865647 bus1=udm14399.1.2 bus2=p1ulv26871.1.2 switch=n enabled=y phases=2 Linecode=1P_OH_AL_2/0_Rucina_0_416_0_2_2

New Line.l(r:p1ulv8060-udm14398) Units=km Length=0.016574500000000002 bus1=udm14398.1.2 bus2=p1ulv8060.1.2 switch=n enabled=y phases=2 Linecode=1P_OH_AL_2/0_Rucina_0_416_0_2_2

New Line.l(r:udm14398-udm14399) Units=km Length=0.0124851 bus1=udm14399.1.2 bus2=udm14398.1.2 switch=n enabled=y phases=2 Linecode=1P_OH_AL_2/0_Rucina_0_416_0_2_2

New Line.l(r:udm14399-udt3713lv) Units=km Length=0.0100823 bus1=udt3713lv.1.2 bus2=udm14399.1.2 switch=n enabled=y phases=2 Linecode=1P_OH_AL_2/0_Rucina_0_416_0_2_2

New Line.l(r:p1ulv38526-udm14401) Units=km Length=0.0186973 bus1=udm14401.1.2 bus2=p1ulv38526.1.2 switch=n enabled=y phases=2 Linecode=1P_OH_AL_2/0_Rucina_0_416_0_2_2

New Line.l(r:udm14401-udt3713lv) Units=km Length=0.022805200000000005 bus1=udt3713lv.1.2 bus2=udm14401.1.2 switch=n enabled=y phases=2 Linecode=1P_OH_AL_2/0_Rucina_0_416_0_2_2

New Line.l(r:p1ulv8064-udm14404) Units=km Length=0.0278011 bus1=udm14404.1.2 bus2=p1ulv8064.1.2 switch=n enabled=y phases=2 Linecode=1P_OH_AL_4/0_Zuzara_0_416_0_2_2

New Line.l(r:udm14404-udt3716lv) Units=km Length=0.0198862 bus1=udt3716lv.1.2 bus2=udm14404.1.2 switch=n enabled=y phases=2 Linecode=1P_OH_AL_2/0_Rucina_0_416_0_2_2
