New Line.l(r:p1ulv1396-udt711lv) Units=km Length=0.0112383 bus1=udt711lv.1.2 bus2=p1ulv1396.1.2 switch=n enabled=y phases=2 Linecode=1P_OH_AL_2/0_Rucina_0_416_0_2_2

New Line.l(r:p1ulv1401-udt711lv) Units=km Length=0.0113142 bus1=udt711lv.1.2 bus2=p1ulv1401.1.2 switch=n enabled=y phases=2 Linecode=1P_OH_AL_2/0_Rucina_0_416_0_2_2

New Line.l(r:p1ulv1398-udm2978) Units=km Length=0.0120522 bus1=udm2978.1.2 bus2=p1ulv1398.1.2 switch=n enabled=y phases=2 Linecode=1P_OH_AL_2/0_Rucina_0_416_0_2_2

New Line.l(r:p1ulv1399-udm2978) Units=km Length=0.011305500000000001 bus1=udm2978.1.2 bus2=p1ulv1399.1.2 switch=n enabled=y phases=2 Linecode=1P_OH_AL_2/0_Rucina_0_416_0_2_2

New Line.l(r:udm2978-udt711lv) Units=km Length=0.0186959 bus1=udt711lv.1.2 bus2=udm2978.1.2 switch=n enabled=y phases=2 Linecode=1P_OH_AL_2/0_Rucina_0_416_0_2_2

New Line.l(r:p1ulv1402-udm2981) Units=km Length=0.00965158 bus1=udm2981.1.2 bus2=p1ulv1402.1.2 switch=n enabled=y phases=2 Linecode=1P_OH_AL_2/0_Rucina_0_416_0_2_2

New Line.l(r:udm2981-udt711lv) Units=km Length=0.0189202 bus1=udt711lv.1.2 bus2=udm2981.1.2 switch=n enabled=y phases=2 Linecode=1P_OH_AL_2/0_Rucina_0_416_0_2_2

New Line.l(r:p1ulv1939-udt1056lv) Units=km Length=0.013340100000000002 bus1=udt1056lv.1.2 bus2=p1ulv1939.1.2 switch=n enabled=y phases=2 Linecode=1P_UG_AL_1/0_Brenau_0_416_0_2_2

New Line.l(r:p1ulv1945-udt1056lv) Units=km Length=0.0340897 bus1=udt1056lv.1.2 bus2=p1ulv1945.1.2 switch=n enabled=y phases=2 Linecode=1P_UG_AL_1/0_Brenau_0_416_0_2_2

New Line.l(r:p1ulv1946-udt1056lv) Units=km Length=0.0340846 bus1=udt1056lv.1.2 bus2=p1ulv1946.1.2 switch=n enabled=y phases=2 Linecode=1P_UG_AL_1/0_Brenau_0_416_0_2_2

New Line.l(r:p1ulv1938-udm4287) Units=km Length=0.0130254 bus1=udm4287.1.2 bus2=p1ulv1938.1.2 switch=n enabled=y phases=2 Linecode=1P_UG_AL_1/0_Brenau_0_416_0_2_2

New Line.l(r:udm4287-udt1056lv) Units=km Length=0.0090765 bus1=udt1056lv.1.2 bus2=udm4287.1.2 switch=n enabled=y phases=2 Linecode=1P_UG_AL_1/0_Brenau_0_416_0_2_2

New Line.l(r:p1ulv1943-udm4290) Units=km Length=0.0136855 bus1=udm4290.1.2 bus2=p1ulv1943.1.2 switch=n enabled=y phases=2 Linecode=1P_UG_AL_1/0_Brenau_0_416_0_2_2

New Line.l(r:p1ulv1944-udm4290) Units=km Length=0.0341354 bus1=udm4290.1.2 bus2=p1ulv1944.1.2 switch=n enabled=y phases=2 Linecode=1P_UG_AL_1/0_Brenau_0_416_0_2_2

New Line.l(r:p1ulv1941-udm4289) Units=km Length=0.0136764 bus1=udm4289.1.2 bus2=p1ulv1941.1.2 switch=n enabled=y phases=2 Linecode=1P_UG_AL_1/0_Brenau_0_416_0_2_2

New Line.l(r:udm4289-udm4290) Units=km Length=0.00957147 bus1=udm4290.1.2 bus2=udm4289.1.2 switch=n enabled=y phases=2 Linecode=1P_UG_AL_1/0_Brenau_0_416_0_2_2

New Line.l(r:udm4290-udt1056lv) Units=km Length=0.00957147 bus1=udt1056lv.1.2 bus2=udm4290.1.2 switch=n enabled=y phases=2 Linecode=1P_UG_AL_4/0_Sweetbriar_0_416_0_2_2

New Line.l(r:p1ulv4355-udm7782) Units=km Length=0.00909079 bus1=udm7782.1.2 bus2=p1ulv4355.1.2 switch=n enabled=y phases=2 Linecode=1P_UG_AL_1/0_Brenau_0_416_0_2_2

New Line.l(r:p1ulv28818-udm7782) Units=km Length=0.00756122 bus1=udm7782.1.2 bus2=p1ulv28818.1.2 switch=n enabled=y phases=2 Linecode=1P_UG_AL_1/0_Brenau_0_416_0_2_2

New Line.l(r:p1ulv28482-udm7785) Units=km Length=0.007434200000000001 bus1=udm7785.1.2 bus2=p1ulv28482.1.2 switch=n enabled=y phases=2 Linecode=1P_UG_AL_1/0_Brenau_0_416_0_2_2

New Line.l(r:p1ulv11234-udm7783) Units=km Length=0.0150205 bus1=udm7783.1.2 bus2=p1ulv11234.1.2 switch=n enabled=y phases=2 Linecode=1P_UG_AL_1/0_Brenau_0_416_0_2_2

New Line.l(r:p1ulv29668-udm7787) Units=km Length=0.0130658 bus1=udm7787.1.2 bus2=p1ulv29668.1.2 switch=n enabled=y phases=2 Linecode=1P_UG_AL_1/0_Brenau_0_416_0_2_2

New Line.l(r:udm7783-udm7787) Units=km Length=0.00961252 bus1=udm7783.1.2 bus2=udm7787.1.2 switch=n enabled=y phases=2 Linecode=1P_UG_AL_1/0_Brenau_0_416_0_2_2

New Line.l(r:udm7783-udm7785) Units=km Length=0.00962229 bus1=udm7785.1.2 bus2=udm7783.1.2 switch=n enabled=y phases=2 Linecode=1P_UG_AL_1/0_Brenau_0_416_0_2_2

New Line.l(r:udm7782-udm7785) Units=km Length=0.019225 bus1=udm7782.1.2 bus2=udm7785.1.2 switch=n enabled=y phases=2 Linecode=1P_UG_AL_2/0_Converse_0_416_0_2_2

New Line.l(r:udm7782-udt1947lv) Units=km Length=0.009612290000000002 bus1=udt1947lv.1.2 bus2=udm7782.1.2 switch=n enabled=y phases=2 Linecode=1P_UG_AL_4/0_Sweetbriar_0_416_0_2_2

New Line.l(r:p1ulv26446-udm7784) Units=km Length=0.00438056 bus1=udm7784.1.2 bus2=p1ulv26446.1.2 switch=n enabled=y phases=2 Linecode=1P_UG_AL_1/0_Brenau_0_416_0_2_2

New Line.l(r:p1ulv42283-udm7790) Units=km Length=0.0131742 bus1=udm7790.1.2 bus2=p1ulv42283.1.2 switch=n enabled=y phases=2 Linecode=1P_UG_AL_1/0_Brenau_0_416_0_2_2

New Line.l(r:p1ulv39048-udm7789) Units=km Length=0.0126739 bus1=udm7789.1.2 bus2=p1ulv39048.1.2 switch=n enabled=y phases=2 Linecode=1P_UG_AL_1/0_Brenau_0_416_0_2_2

New Line.l(r:p1ulv32034-udm7788) Units=km Length=0.0114813 bus1=udm7788.1.2 bus2=p1ulv32034.1.2 switch=n enabled=y phases=2 Linecode=1P_UG_AL_1/0_Brenau_0_416_0_2_2

New Line.l(r:p1ulv47291-udm7788) Units=km Length=0.0124594 bus1=udm7788.1.2 bus2=p1ulv47291.1.2 switch=n enabled=y phases=2 Linecode=1P_UG_AL_1/0_Brenau_0_416_0_2_2

New Line.l(r:udm7788-udm7789) Units=km Length=0.00990485 bus1=udm7789.1.2 bus2=udm7788.1.2 switch=n enabled=y phases=2 Linecode=1P_UG_AL_1/0_Brenau_0_416_0_2_2

New Line.l(r:udm7789-udm7790) Units=km Length=0.0197894 bus1=udm7790.1.2 bus2=udm7789.1.2 switch=n enabled=y phases=2 Linecode=1P_UG_AL_2/0_Converse_0_416_0_2_2

New Line.l(r:udm7784-udm7790) Units=km Length=0.009612290000000002 bus1=udm7784.1.2 bus2=udm7790.1.2 switch=n enabled=y phases=2 Linecode=1P_UG_AL_4/0_Sweetbriar_0_416_0_2_2

New Line.l(r:udm7784-udt1947lv) Units=km Length=0.019225 bus1=udt1947lv.1.2 bus2=udm7784.1.2 switch=n enabled=y phases=2 Linecode=1P_UG_AL_4/0_Sweetbriar_0_416_0_2_2

New Line.l(r:p1ulv31568-udt1950lv) Units=km Length=0.016399300000000002 bus1=udt1950lv.1.2 bus2=p1ulv31568.1.2 switch=n enabled=y phases=2 Linecode=1P_UG_AL_1/0_Brenau_0_416_0_2_2

New Line.l(r:p1ulv4358-udm7806) Units=km Length=0.017475300000000003 bus1=udm7806.1.2 bus2=p1ulv4358.1.2 switch=n enabled=y phases=2 Linecode=1P_UG_AL_1/0_Brenau_0_416_0_2_2

New Line.l(r:p1ulv36582-udm7806) Units=km Length=0.014863200000000002 bus1=udm7806.1.2 bus2=p1ulv36582.1.2 switch=n enabled=y phases=2 Linecode=1P_UG_AL_1/0_Brenau_0_416_0_2_2

New Line.l(r:udm7806-udt1950lv) Units=km Length=0.00956795 bus1=udt1950lv.1.2 bus2=udm7806.1.2 switch=n enabled=y phases=2 Linecode=1P_UG_AL_2/0_Converse_0_416_0_2_2

New Line.l(r:p1ulv32326-udm7808) Units=km Length=0.0184417 bus1=udm7808.1.2 bus2=p1ulv32326.1.2 switch=n enabled=y phases=2 Linecode=1P_UG_AL_1/0_Brenau_0_416_0_2_2

New Line.l(r:p1ulv45558-udm7810) Units=km Length=0.014014000000000002 bus1=udm7810.1.2 bus2=p1ulv45558.1.2 switch=n enabled=y phases=2 Linecode=1P_UG_AL_1/0_Brenau_0_416_0_2_2

New Line.l(r:udm7808-udm7810) Units=km Length=0.00956795 bus1=udm7808.1.2 bus2=udm7810.1.2 switch=n enabled=y phases=2 Linecode=1P_UG_AL_1/0_Brenau_0_416_0_2_2

New Line.l(r:udm7808-udt1950lv) Units=km Length=0.009578360000000001 bus1=udt1950lv.1.2 bus2=udm7808.1.2 switch=n enabled=y phases=2 Linecode=1P_UG_AL_1/0_Brenau_0_416_0_2_2

New Line.l(r:p1ulv4366-udt1956lv) Units=km Length=0.0136278 bus1=udt1956lv.1.2 bus2=p1ulv4366.1.2 switch=n enabled=y phases=2 Linecode=1P_UG_AL_1/0_Brenau_0_416_0_2_2

New Line.l(r:p1ulv42344-udt1956lv) Units=km Length=0.0183634 bus1=udt1956lv.1.2 bus2=p1ulv42344.1.2 switch=n enabled=y phases=2 Linecode=1P_UG_AL_1/0_Brenau_0_416_0_2_2

New Line.l(r:p1ulv47351-udm7825) Units=km Length=0.0178667 bus1=udm7825.1.2 bus2=p1ulv47351.1.2 switch=n enabled=y phases=2 Linecode=1P_UG_AL_1/0_Brenau_0_416_0_2_2

New Line.l(r:udm7825-udt1956lv) Units=km Length=0.009578360000000001 bus1=udt1956lv.1.2 bus2=udm7825.1.2 switch=n enabled=y phases=2 Linecode=1P_UG_AL_1/0_Brenau_0_416_0_2_2

New Line.l(r:p1ulv4373-udm7834) Units=km Length=0.006071900000000001 bus1=udm7834.1.2 bus2=p1ulv4373.1.2 switch=n enabled=y phases=2 Linecode=1P_UG_AL_1/0_Brenau_0_416_0_2_2

New Line.l(r:udm7834-udt1960lv) Units=km Length=0.00930026 bus1=udt1960lv.1.2 bus2=udm7834.1.2 switch=n enabled=y phases=2 Linecode=1P_UG_AL_1/0_Brenau_0_416_0_2_2

New Line.l(r:p1ulv31543-udm7835) Units=km Length=0.0190573 bus1=udm7835.1.2 bus2=p1ulv31543.1.2 switch=n enabled=y phases=2 Linecode=1P_UG_AL_1/0_Brenau_0_416_0_2_2

New Line.l(r:udm7835-udt1960lv) Units=km Length=0.0465232 bus1=udt1960lv.1.2 bus2=udm7835.1.2 switch=n enabled=y phases=2 Linecode=1P_UG_AL_1/0_Brenau_0_416_0_2_2

New Line.l(r:p1ulv37231-udt5143lv) Units=km Length=0.013275200000000001 bus1=udt5143lv.1.2 bus2=p1ulv37231.1.2 switch=n enabled=y phases=2 Linecode=1P_UG_AL_1/0_Brenau_0_416_0_2_2

New Line.l(r:p1ulv38708-udt5143lv) Units=km Length=0.00888978 bus1=udt5143lv.1.2 bus2=p1ulv38708.1.2 switch=n enabled=y phases=2 Linecode=1P_UG_AL_1/0_Brenau_0_416_0_2_2

New Line.l(r:p1ulv38990-udt5143lv) Units=km Length=0.0114939 bus1=udt5143lv.1.2 bus2=p1ulv38990.1.2 switch=n enabled=y phases=2 Linecode=1P_UG_AL_1/0_Brenau_0_416_0_2_2

New Line.l(r:p1ulv11236-udm19332) Units=km Length=0.0118163 bus1=udm19332.1.2 bus2=p1ulv11236.1.2 switch=n enabled=y phases=2 Linecode=1P_UG_AL_1/0_Brenau_0_416_0_2_2

New Line.l(r:p1ulv27031-udm19333) Units=km Length=0.0086537 bus1=udm19333.1.2 bus2=p1ulv27031.1.2 switch=n enabled=y phases=2 Linecode=1P_UG_AL_1/0_Brenau_0_416_0_2_2

New Line.l(r:p1ulv38314-udm19333) Units=km Length=0.00863445 bus1=udm19333.1.2 bus2=p1ulv38314.1.2 switch=n enabled=y phases=2 Linecode=1P_UG_AL_1/0_Brenau_0_416_0_2_2

New Line.l(r:udm19332-udm19333) Units=km Length=0.009612290000000002 bus1=udm19332.1.2 bus2=udm19333.1.2 switch=n enabled=y phases=2 Linecode=1P_UG_AL_1/0_Brenau_0_416_0_2_2

New Line.l(r:udm19332-udt5143lv) Units=km Length=0.019225 bus1=udt5143lv.1.2 bus2=udm19332.1.2 switch=n enabled=y phases=2 Linecode=1P_UG_AL_2/0_Converse_0_416_0_2_2

New Line.l(r:p1ulv47532-udm19339) Units=km Length=0.00852892 bus1=udm19339.1.2 bus2=p1ulv47532.1.2 switch=n enabled=y phases=2 Linecode=1P_UG_AL_1/0_Brenau_0_416_0_2_2

New Line.l(r:p1ulv42595-udm19338) Units=km Length=0.0131027 bus1=udm19338.1.2 bus2=p1ulv42595.1.2 switch=n enabled=y phases=2 Linecode=1P_UG_AL_1/0_Brenau_0_416_0_2_2

New Line.l(r:udm19338-udm19339) Units=km Length=0.00961252 bus1=udm19339.1.2 bus2=udm19338.1.2 switch=n enabled=y phases=2 Linecode=1P_UG_AL_1/0_Brenau_0_416_0_2_2

New Line.l(r:udm19339-udt5143lv) Units=km Length=0.019224800000000004 bus1=udt5143lv.1.2 bus2=udm19339.1.2 switch=n enabled=y phases=2 Linecode=1P_UG_AL_1/0_Brenau_0_416_0_2_2

New Line.l(r:p1ulv11237-udm19340) Units=km Length=0.0146007 bus1=udm19340.1.2 bus2=p1ulv11237.1.2 switch=n enabled=y phases=2 Linecode=1P_UG_AL_1/0_Brenau_0_416_0_2_2

New Line.l(r:udm19340-udt5144lv) Units=km Length=0.00950842 bus1=udt5144lv.1.2 bus2=udm19340.1.2 switch=n enabled=y phases=2 Linecode=1P_UG_AL_1/0_Brenau_0_416_0_2_2

New Line.l(r:p1ulv39433-udm19341) Units=km Length=0.0187007 bus1=udm19341.1.2 bus2=p1ulv39433.1.2 switch=n enabled=y phases=2 Linecode=1P_UG_AL_1/0_Brenau_0_416_0_2_2

New Line.l(r:udm19341-udt5144lv) Units=km Length=0.00951883 bus1=udt5144lv.1.2 bus2=udm19341.1.2 switch=n enabled=y phases=2 Linecode=1P_UG_AL_1/0_Brenau_0_416_0_2_2

New Line.l(r:p1ulv38843-udt5145lv) Units=km Length=0.0104252 bus1=udt5145lv.1.2 bus2=p1ulv38843.1.2 switch=n enabled=y phases=2 Linecode=1P_UG_AL_1/0_Brenau_0_416_0_2_2

New Line.l(r:p1ulv11240-udm19343) Units=km Length=0.011671 bus1=udm19343.1.2 bus2=p1ulv11240.1.2 switch=n enabled=y phases=2 Linecode=1P_UG_AL_1/0_Brenau_0_416_0_2_2

New Line.l(r:p1ulv11245-udm19344) Units=km Length=0.0136549 bus1=udm19344.1.2 bus2=p1ulv11245.1.2 switch=n enabled=y phases=2 Linecode=1P_UG_AL_1/0_Brenau_0_416_0_2_2

New Line.l(r:p1ulv11262-udm19346) Units=km Length=0.0143662 bus1=udm19346.1.2 bus2=p1ulv11262.1.2 switch=n enabled=y phases=2 Linecode=1P_UG_AL_1/0_Brenau_0_416_0_2_2

New Line.l(r:udm19344-udm19346) Units=km Length=0.009978840000000001 bus1=udm19344.1.2 bus2=udm19346.1.2 switch=n enabled=y phases=2 Linecode=1P_UG_AL_1/0_Brenau_0_416_0_2_2

New Line.l(r:udm19343-udm19344) Units=km Length=0.046572 bus1=udm19343.1.2 bus2=udm19344.1.2 switch=n enabled=y phases=2 Linecode=1P_UG_AL_1/0_Brenau_0_416_0_2_2

New Line.l(r:udm19343-udt5145lv) Units=km Length=0.00831219 bus1=udt5145lv.1.2 bus2=udm19343.1.2 switch=n enabled=y phases=2 Linecode=1P_UG_AL_2/0_Converse_0_416_0_2_2

New Line.l(r:p1ulv33283-udm19347) Units=km Length=0.0110006 bus1=udm19347.1.2 bus2=p1ulv33283.1.2 switch=n enabled=y phases=2 Linecode=1P_UG_AL_1/0_Brenau_0_416_0_2_2

New Line.l(r:p1ulv11238-udm19342) Units=km Length=0.011201300000000003 bus1=udm19342.1.2 bus2=p1ulv11238.1.2 switch=n enabled=y phases=2 Linecode=1P_UG_AL_1/0_Brenau_0_416_0_2_2

New Line.l(r:p1ulv11247-udm19345) Units=km Length=0.00760111 bus1=udm19345.1.2 bus2=p1ulv11247.1.2 switch=n enabled=y phases=2 Linecode=1P_OH_AL_2/0_Rucina_0_416_0_2_2

New Line.l(r:udm19342-udm19345) Units=km Length=0.0586831 bus1=udm19342.1.2 bus2=udm19345.1.2 switch=n enabled=y phases=2 Linecode=1P_OH_AL_4/0_Zuzara_0_416_0_2_2

New Line.l(r:udm19342-udm19347) Units=km Length=0.0181031 bus1=udm19347.1.2 bus2=udm19342.1.2 switch=n enabled=y phases=2 Linecode=1P_UG_AL_1/0_Brenau_0_416_0_2_2

New Line.l(r:udm19347-udt5145lv) Units=km Length=0.00832272 bus1=udt5145lv.1.2 bus2=udm19347.1.2 switch=n enabled=y phases=2 Linecode=1P_UG_AL_2/0_Converse_0_416_0_2_2

New Line.l(r:p1ulv11243-udm19360) Units=km Length=0.0131751 bus1=udm19360.1.2 bus2=p1ulv11243.1.2 switch=n enabled=y phases=2 Linecode=1P_UG_AL_1/0_Brenau_0_416_0_2_2

New Line.l(r:p1ulv11266-udm19362) Units=km Length=0.0125578 bus1=udm19362.1.2 bus2=p1ulv11266.1.2 switch=n enabled=y phases=2 Linecode=1P_UG_AL_1/0_Brenau_0_416_0_2_2

New Line.l(r:p1ulv11263-udm19361) Units=km Length=0.013681100000000002 bus1=udm19361.1.2 bus2=p1ulv11263.1.2 switch=n enabled=y phases=2 Linecode=1P_UG_AL_1/0_Brenau_0_416_0_2_2

New Line.l(r:udm19361-udm19362) Units=km Length=0.0199677 bus1=udm19362.1.2 bus2=udm19361.1.2 switch=n enabled=y phases=2 Linecode=1P_UG_AL_1/0_Brenau_0_416_0_2_2

New Line.l(r:udm19360-udm19362) Units=km Length=0.0199577 bus1=udm19360.1.2 bus2=udm19362.1.2 switch=n enabled=y phases=2 Linecode=1P_UG_AL_1/0_Brenau_0_416_0_2_2

New Line.l(r:udm19360-udt5149lv) Units=km Length=0.009978840000000001 bus1=udt5149lv.1.2 bus2=udm19360.1.2 switch=n enabled=y phases=2 Linecode=1P_UG_AL_4/0_Sweetbriar_0_416_0_2_2

New Line.l(r:p1ulv31479-udm19364) Units=km Length=0.0103379 bus1=udm19364.1.2 bus2=p1ulv31479.1.2 switch=n enabled=y phases=2 Linecode=1P_OH_AL_2/0_Rucina_0_416_0_2_2

New Line.l(r:p1ulv30052-udm19363) Units=km Length=0.0119792 bus1=udm19363.1.2 bus2=p1ulv30052.1.2 switch=n enabled=y phases=2 Linecode=1P_OH_AL_2/0_Rucina_0_416_0_2_2

New Line.l(r:p1ulv35050-udm19365) Units=km Length=0.011159600000000002 bus1=udm19365.1.2 bus2=p1ulv35050.1.2 switch=n enabled=y phases=2 Linecode=1P_OH_AL_2/0_Rucina_0_416_0_2_2

New Line.l(r:udm19363-udm19365) Units=km Length=0.0109559 bus1=udm19363.1.2 bus2=udm19365.1.2 switch=n enabled=y phases=2 Linecode=1P_OH_AL_2/0_Rucina_0_416_0_2_2

New Line.l(r:udm19363-udm19364) Units=km Length=0.0195941 bus1=udm19364.1.2 bus2=udm19363.1.2 switch=n enabled=y phases=2 Linecode=1P_OH_AL_2/0_Rucina_0_416_0_2_2

New Line.l(r:udm19364-udt5149lv) Units=km Length=0.0328343 bus1=udt5149lv.1.2 bus2=udm19364.1.2 switch=n enabled=y phases=2 Linecode=1P_OH_AL_4/0_Zuzara_0_416_0_2_2

New Line.l(r:p1ulv11244-udt5150lv) Units=km Length=0.0127531 bus1=udt5150lv.1.2 bus2=p1ulv11244.1.2 switch=n enabled=y phases=2 Linecode=1P_UG_AL_1/0_Brenau_0_416_0_2_2

New Line.l(r:p1ulv41217-udt5150lv) Units=km Length=0.012696900000000002 bus1=udt5150lv.1.2 bus2=p1ulv41217.1.2 switch=n enabled=y phases=2 Linecode=1P_UG_AL_1/0_Brenau_0_416_0_2_2

New Line.l(r:p1ulv45894-udm19370) Units=km Length=0.0122447 bus1=udm19370.1.2 bus2=p1ulv45894.1.2 switch=n enabled=y phases=2 Linecode=1P_UG_AL_1/0_Brenau_0_416_0_2_2

New Line.l(r:p1ulv33860-udm19367) Units=km Length=0.0163288 bus1=udm19367.1.2 bus2=p1ulv33860.1.2 switch=n enabled=y phases=2 Linecode=1P_UG_AL_1/0_Brenau_0_416_0_2_2

New Line.l(r:udm19367-udm19370) Units=km Length=0.00990485 bus1=udm19370.1.2 bus2=udm19367.1.2 switch=n enabled=y phases=2 Linecode=1P_UG_AL_1/0_Brenau_0_416_0_2_2

New Line.l(r:udm19370-udt5150lv) Units=km Length=0.0197894 bus1=udt5150lv.1.2 bus2=udm19370.1.2 switch=n enabled=y phases=2 Linecode=1P_UG_AL_1/0_Brenau_0_416_0_2_2

New Line.l(r:p1ulv50777-udm19371) Units=km Length=0.0111133 bus1=udm19371.1.2 bus2=p1ulv50777.1.2 switch=n enabled=y phases=2 Linecode=1P_UG_AL_1/0_Brenau_0_416_0_2_2

New Line.l(r:p1ulv38674-udm19368) Units=km Length=0.0102133 bus1=udm19368.1.2 bus2=p1ulv38674.1.2 switch=n enabled=y phases=2 Linecode=1P_UG_AL_1/0_Brenau_0_416_0_2_2

New Line.l(r:udm19368-udm19371) Units=km Length=0.00990454 bus1=udm19371.1.2 bus2=udm19368.1.2 switch=n enabled=y phases=2 Linecode=1P_UG_AL_1/0_Brenau_0_416_0_2_2

New Line.l(r:udm19371-udt5150lv) Units=km Length=0.019799700000000003 bus1=udt5150lv.1.2 bus2=udm19371.1.2 switch=n enabled=y phases=2 Linecode=1P_UG_AL_2/0_Converse_0_416_0_2_2

New Line.l(r:p1ulv37541-udt5151lv) Units=km Length=0.011998400000000001 bus1=udt5151lv.1.2 bus2=p1ulv37541.1.2 switch=n enabled=y phases=2 Linecode=1P_UG_AL_1/0_Brenau_0_416_0_2_2

New Line.l(r:p1ulv11246-udm19372) Units=km Length=0.014582 bus1=udm19372.1.2 bus2=p1ulv11246.1.2 switch=n enabled=y phases=2 Linecode=1P_UG_AL_1/0_Brenau_0_416_0_2_2

New Line.l(r:udm19372-udt5151lv) Units=km Length=0.03715940000000001 bus1=udt5151lv.1.2 bus2=udm19372.1.2 switch=n enabled=y phases=2 Linecode=1P_UG_AL_1/0_Brenau_0_416_0_2_2

New Line.l(r:p1ulv11248-udm19374) Units=km Length=0.0118896 bus1=udm19374.1.2 bus2=p1ulv11248.1.2 switch=n enabled=y phases=2 Linecode=1P_UG_AL_1/0_Brenau_0_416_0_2_2

New Line.l(r:udm19374-udt5152lv) Units=km Length=0.00950842 bus1=udt5152lv.1.2 bus2=udm19374.1.2 switch=n enabled=y phases=2 Linecode=1P_UG_AL_1/0_Brenau_0_416_0_2_2

New Line.l(r:p1ulv47691-udm19375) Units=km Length=0.0162021 bus1=udm19375.1.2 bus2=p1ulv47691.1.2 switch=n enabled=y phases=2 Linecode=1P_UG_AL_1/0_Brenau_0_416_0_2_2

New Line.l(r:udm19375-udt5152lv) Units=km Length=0.00951883 bus1=udt5152lv.1.2 bus2=udm19375.1.2 switch=n enabled=y phases=2 Linecode=1P_UG_AL_1/0_Brenau_0_416_0_2_2

New Line.l(r:p1ulv11261-udm19397) Units=km Length=0.0182732 bus1=udm19397.1.2 bus2=p1ulv11261.1.2 switch=n enabled=y phases=2 Linecode=1P_UG_AL_4/0_Sweetbriar_0_416_0_2_2

New Line.l(r:udm19397-udt5160lv) Units=km Length=0.00950842 bus1=udt5160lv.1.2 bus2=udm19397.1.2 switch=n enabled=y phases=2 Linecode=1P_UG_AL_4/0_Sweetbriar_0_416_0_2_2

New Line.l(r:p1ulv42662-udm19398) Units=km Length=0.0146469 bus1=udm19398.1.2 bus2=p1ulv42662.1.2 switch=n enabled=y phases=2 Linecode=1P_UG_AL_1/0_Brenau_0_416_0_2_2

New Line.l(r:udm19398-udt5160lv) Units=km Length=0.00951883 bus1=udt5160lv.1.2 bus2=udm19398.1.2 switch=n enabled=y phases=2 Linecode=1P_UG_AL_1/0_Brenau_0_416_0_2_2

New Line.l(r:p1ulv28620-udt5161lv) Units=km Length=0.0104962 bus1=udt5161lv.1.2 bus2=p1ulv28620.1.2 switch=n enabled=y phases=2 Linecode=1P_UG_AL_1/0_Brenau_0_416_0_2_2

New Line.l(r:p1ulv11264-udm19399) Units=km Length=0.0234738 bus1=udm19399.1.2 bus2=p1ulv11264.1.2 switch=n enabled=y phases=2 Linecode=1P_OH_AL_2/0_Rucina_0_416_0_2_2

New Line.l(r:udm19399-udt5161lv) Units=km Length=0.10944100000000001 bus1=udt5161lv.1.2 bus2=udm19399.1.2 switch=n enabled=y phases=2 Linecode=1P_OH_AL_4/0_Zuzara_0_416_0_2_2

New Line.l(r:p1ulv11269-udm19400) Units=km Length=0.0114837 bus1=udm19400.1.2 bus2=p1ulv11269.1.2 switch=n enabled=y phases=2 Linecode=1P_UG_AL_1/0_Brenau_0_416_0_2_2

New Line.l(r:udm19400-udt5161lv) Units=km Length=0.00965625 bus1=udt5161lv.1.2 bus2=udm19400.1.2 switch=n enabled=y phases=2 Linecode=1P_UG_AL_1/0_Brenau_0_416_0_2_2

New Line.l(r:p1ulv49338-udt5162lv) Units=km Length=0.0101204 bus1=udt5162lv.1.2 bus2=p1ulv49338.1.2 switch=n enabled=y phases=2 Linecode=1P_UG_AL_1/0_Brenau_0_416_0_2_2

New Line.l(r:p1ulv11265-udm19402) Units=km Length=0.010030100000000002 bus1=udm19402.1.2 bus2=p1ulv11265.1.2 switch=n enabled=y phases=2 Linecode=1P_UG_AL_1/0_Brenau_0_416_0_2_2

New Line.l(r:udm19402-udt5162lv) Units=km Length=0.00964627 bus1=udt5162lv.1.2 bus2=udm19402.1.2 switch=n enabled=y phases=2 Linecode=1P_UG_AL_1/0_Brenau_0_416_0_2_2

New Line.l(r:p1ulv11267-udm19404) Units=km Length=0.011352400000000002 bus1=udm19404.1.2 bus2=p1ulv11267.1.2 switch=n enabled=y phases=2 Linecode=1P_UG_AL_1/0_Brenau_0_416_0_2_2

New Line.l(r:p1ulv47674-udm19404) Units=km Length=0.0143116 bus1=udm19404.1.2 bus2=p1ulv47674.1.2 switch=n enabled=y phases=2 Linecode=1P_UG_AL_1/0_Brenau_0_416_0_2_2

New Line.l(r:p1ulv41050-udm19407) Units=km Length=0.0133613 bus1=udm19407.1.2 bus2=p1ulv41050.1.2 switch=n enabled=y phases=2 Linecode=1P_OH_AL_2/0_Rucina_0_416_0_2_2

New Line.l(r:udm19404-udm19407) Units=km Length=0.0510768 bus1=udm19404.1.2 bus2=udm19407.1.2 switch=n enabled=y phases=2 Linecode=1P_OH_AL_4/0_Zuzara_0_416_0_2_2

New Line.l(r:udm19404-udt5163lv) Units=km Length=0.0165626 bus1=udt5163lv.1.2 bus2=udm19404.1.2 switch=n enabled=y phases=2 Linecode=1P_UG_AL_2/0_Converse_0_416_0_2_2

New Line.l(r:p1ulv50710-udm19409) Units=km Length=0.0118325 bus1=udm19409.1.2 bus2=p1ulv50710.1.2 switch=n enabled=y phases=2 Linecode=1P_UG_AL_1/0_Brenau_0_416_0_2_2

New Line.l(r:p1ulv31824-udm19406) Units=km Length=0.011776 bus1=udm19406.1.2 bus2=p1ulv31824.1.2 switch=n enabled=y phases=2 Linecode=1P_UG_AL_1/0_Brenau_0_416_0_2_2

New Line.l(r:p1ulv11270-udm19405) Units=km Length=0.00962771 bus1=udm19405.1.2 bus2=p1ulv11270.1.2 switch=n enabled=y phases=2 Linecode=1P_UG_AL_1/0_Brenau_0_416_0_2_2

New Line.l(r:udm19405-udm19406) Units=km Length=0.009073170000000002 bus1=udm19406.1.2 bus2=udm19405.1.2 switch=n enabled=y phases=2 Linecode=1P_UG_AL_1/0_Brenau_0_416_0_2_2

New Line.l(r:udm19406-udm19409) Units=km Length=0.008697680000000001 bus1=udm19409.1.2 bus2=udm19406.1.2 switch=n enabled=y phases=2 Linecode=1P_UG_AL_2/0_Converse_0_416_0_2_2

New Line.l(r:udm19409-udt5163lv) Units=km Length=0.0184972 bus1=udt5163lv.1.2 bus2=udm19409.1.2 switch=n enabled=y phases=2 Linecode=1P_UG_AL_4/0_Sweetbriar_0_416_0_2_2

New Line.l(r:p1ulv11268-udt5164lv) Units=km Length=0.0155316 bus1=udt5164lv.1.2 bus2=p1ulv11268.1.2 switch=n enabled=y phases=2 Linecode=1P_UG_AL_1/0_Brenau_0_416_0_2_2

New Line.l(r:p1ulv26235-udt5164lv) Units=km Length=0.0148903 bus1=udt5164lv.1.2 bus2=p1ulv26235.1.2 switch=n enabled=y phases=2 Linecode=1P_UG_AL_1/0_Brenau_0_416_0_2_2

New Line.l(r:p1ulv42417-udm19413) Units=km Length=0.0144182 bus1=udm19413.1.2 bus2=p1ulv42417.1.2 switch=n enabled=y phases=2 Linecode=1P_UG_AL_1/0_Brenau_0_416_0_2_2

New Line.l(r:p1ulv33118-udm19412) Units=km Length=0.014335 bus1=udm19412.1.2 bus2=p1ulv33118.1.2 switch=n enabled=y phases=2 Linecode=1P_UG_AL_1/0_Brenau_0_416_0_2_2

New Line.l(r:udm19412-udm19413) Units=km Length=0.00939258 bus1=udm19413.1.2 bus2=udm19412.1.2 switch=n enabled=y phases=2 Linecode=1P_UG_AL_1/0_Brenau_0_416_0_2_2

New Line.l(r:udm19413-udt5164lv) Units=km Length=0.00938258 bus1=udt5164lv.1.2 bus2=udm19413.1.2 switch=n enabled=y phases=2 Linecode=1P_UG_AL_1/0_Brenau_0_416_0_2_2

New Line.l(r:p1ulv45651-udm19414) Units=km Length=0.0143907 bus1=udm19414.1.2 bus2=p1ulv45651.1.2 switch=n enabled=y phases=2 Linecode=1P_UG_AL_1/0_Brenau_0_416_0_2_2

New Line.l(r:udm19414-udt5164lv) Units=km Length=0.0187849 bus1=udt5164lv.1.2 bus2=udm19414.1.2 switch=n enabled=y phases=2 Linecode=1P_UG_AL_1/0_Brenau_0_416_0_2_2

New Line.l(r:p1ulv11829-udt5372lv) Units=km Length=0.0130066 bus1=udt5372lv.1.2 bus2=p1ulv11829.1.2 switch=n enabled=y phases=2 Linecode=1P_UG_AL_2/0_Converse_0_416_0_2_2

New Line.l(r:p1ulv11830-udm20125) Units=km Length=0.00954204 bus1=udm20125.1.2 bus2=p1ulv11830.1.2 switch=n enabled=y phases=2 Linecode=1P_UG_AL_4/0_Sweetbriar_0_416_0_2_2

New Line.l(r:udm20125-udt5372lv) Units=km Length=0.0188981 bus1=udt5372lv.1.2 bus2=udm20125.1.2 switch=n enabled=y phases=2 Linecode=1P_UG_AL_4/0_Sweetbriar_0_416_0_2_2

New Line.l(r:p1ulv49198-udm20126) Units=km Length=0.0163878 bus1=udm20126.1.2 bus2=p1ulv49198.1.2 switch=n enabled=y phases=2 Linecode=1P_UG_AL_1/0_Brenau_0_416_0_2_2

New Line.l(r:udm20126-udt5372lv) Units=km Length=0.0302077 bus1=udt5372lv.1.2 bus2=udm20126.1.2 switch=n enabled=y phases=2 Linecode=1P_UG_AL_1/0_Brenau_0_416_0_2_2

New Line.l(r:p1ulv19247-udt9045lv) Units=km Length=0.0255273 bus1=udt9045lv.1.2 bus2=p1ulv19247.1.2 switch=n enabled=y phases=2 Linecode=1P_OH_AL_2/0_Rucina_0_416_0_2_2

New Line.l(r:p1ulv33026-udt9045lv) Units=km Length=0.0185023 bus1=udt9045lv.1.2 bus2=p1ulv33026.1.2 switch=n enabled=y phases=2 Linecode=1P_OH_AL_2/0_Rucina_0_416_0_2_2

New Line.l(r:p1ulv37855-udm32019) Units=km Length=0.0187867 bus1=udm32019.1.2 bus2=p1ulv37855.1.2 switch=n enabled=y phases=2 Linecode=1P_OH_AL_2/0_Rucina_0_416_0_2_2

New Line.l(r:udm32019-udt9045lv) Units=km Length=0.0199597 bus1=udt9045lv.1.2 bus2=udm32019.1.2 switch=n enabled=y phases=2 Linecode=1P_OH_AL_2/0_Rucina_0_416_0_2_2

New Line.l(r:p1ulv22887-udt9046lv) Units=km Length=0.0122956 bus1=udt9046lv.1.2 bus2=p1ulv22887.1.2 switch=n enabled=y phases=2 Linecode=1P_OH_AL_2/0_Rucina_0_416_0_2_2

New Line.l(r:p1ulv19248-udm32020) Units=km Length=0.0134404 bus1=udm32020.1.2 bus2=p1ulv19248.1.2 switch=n enabled=y phases=2 Linecode=1P_OH_AL_2/0_Rucina_0_416_0_2_2

New Line.l(r:udm32020-udt9046lv) Units=km Length=0.0199499 bus1=udt9046lv.1.2 bus2=udm32020.1.2 switch=n enabled=y phases=2 Linecode=1P_OH_AL_2/0_Rucina_0_416_0_2_2

New Line.l(r:p1ulv26555-udm32022) Units=km Length=0.0117154 bus1=udm32022.1.2 bus2=p1ulv26555.1.2 switch=n enabled=y phases=2 Linecode=1P_UG_AL_2/0_Converse_0_416_0_2_2

New Line.l(r:udm32022-udt9046lv) Units=km Length=0.0199499 bus1=udt9046lv.1.2 bus2=udm32022.1.2 switch=n enabled=y phases=2 Linecode=1P_OH_AL_2/0_Rucina_0_416_0_2_2

New Line.l(r:p1ulv37659-udt9047lv) Units=km Length=0.00917772 bus1=udt9047lv.1.2 bus2=p1ulv37659.1.2 switch=n enabled=y phases=2 Linecode=1P_UG_AL_1/0_Brenau_0_416_0_2_2

New Line.l(r:p1ulv22906-udm32024) Units=km Length=0.00983488 bus1=udm32024.1.2 bus2=p1ulv22906.1.2 switch=n enabled=y phases=2 Linecode=1P_UG_AL_1/0_Brenau_0_416_0_2_2

New Line.l(r:p1ulv22907-udm32024) Units=km Length=0.00780477 bus1=udm32024.1.2 bus2=p1ulv22907.1.2 switch=n enabled=y phases=2 Linecode=1P_UG_AL_1/0_Brenau_0_416_0_2_2

New Line.l(r:p1ulv28210-udm32024) Units=km Length=0.0127266 bus1=udm32024.1.2 bus2=p1ulv28210.1.2 switch=n enabled=y phases=2 Linecode=1P_UG_AL_1/0_Brenau_0_416_0_2_2

New Line.l(r:udm32024-udt9047lv) Units=km Length=0.00966336 bus1=udt9047lv.1.2 bus2=udm32024.1.2 switch=n enabled=y phases=2 Linecode=1P_UG_AL_4/0_Sweetbriar_0_416_0_2_2

New Line.l(r:p1ulv36089-udm32028) Units=km Length=0.0134122 bus1=udm32028.1.2 bus2=p1ulv36089.1.2 switch=n enabled=y phases=2 Linecode=1P_UG_AL_1/0_Brenau_0_416_0_2_2

New Line.l(r:p1ulv19249-udm32023) Units=km Length=0.0112206 bus1=udm32023.1.2 bus2=p1ulv19249.1.2 switch=n enabled=y phases=2 Linecode=1P_UG_AL_1/0_Brenau_0_416_0_2_2

New Line.l(r:p1ulv22914-udm32026) Units=km Length=0.0160256 bus1=udm32026.1.2 bus2=p1ulv22914.1.2 switch=n enabled=y phases=2 Linecode=1P_UG_AL_1/0_Brenau_0_416_0_2_2

New Line.l(r:udm32023-udm32026) Units=km Length=0.00966336 bus1=udm32023.1.2 bus2=udm32026.1.2 switch=n enabled=y phases=2 Linecode=1P_UG_AL_1/0_Brenau_0_416_0_2_2

New Line.l(r:udm32023-udm32028) Units=km Length=0.00966475 bus1=udm32028.1.2 bus2=udm32023.1.2 switch=n enabled=y phases=2 Linecode=1P_UG_AL_2/0_Converse_0_416_0_2_2

New Line.l(r:udm32028-udt9047lv) Units=km Length=0.00966336 bus1=udt9047lv.1.2 bus2=udm32028.1.2 switch=n enabled=y phases=2 Linecode=1P_UG_AL_4/0_Sweetbriar_0_416_0_2_2

New Line.l(r:p1ulv22929-udt9048lv) Units=km Length=0.0165237 bus1=udt9048lv.1.2 bus2=p1ulv22929.1.2 switch=n enabled=y phases=2 Linecode=1P_OH_AL_2/0_Rucina_0_416_0_2_2

New Line.l(r:p1ulv22941-udt9048lv) Units=km Length=0.0129468 bus1=udt9048lv.1.2 bus2=p1ulv22941.1.2 switch=n enabled=y phases=2 Linecode=1P_OH_AL_2/0_Rucina_0_416_0_2_2

New Line.l(r:p1ulv19250-udm32030) Units=km Length=0.014191600000000002 bus1=udm32030.1.2 bus2=p1ulv19250.1.2 switch=n enabled=y phases=2 Linecode=1P_OH_AL_2/0_Rucina_0_416_0_2_2

New Line.l(r:udm32030-udt9048lv) Units=km Length=0.0187021 bus1=udt9048lv.1.2 bus2=udm32030.1.2 switch=n enabled=y phases=2 Linecode=1P_OH_AL_2/0_Rucina_0_416_0_2_2

New Line.l(r:p1ulv28029-udm32035) Units=km Length=0.0272942 bus1=udm32035.1.2 bus2=p1ulv28029.1.2 switch=n enabled=y phases=2 Linecode=1P_UG_AL_1/0_Brenau_0_416_0_2_2

New Line.l(r:p1ulv19251-udm32033) Units=km Length=0.00904814 bus1=udm32033.1.2 bus2=p1ulv19251.1.2 switch=n enabled=y phases=2 Linecode=1P_UG_AL_4/0_Sweetbriar_0_416_0_2_2

New Line.l(r:p1ulv27219-udm32034) Units=km Length=0.0114221 bus1=udm32034.1.2 bus2=p1ulv27219.1.2 switch=n enabled=y phases=2 Linecode=1P_UG_AL_1/0_Brenau_0_416_0_2_2

New Line.l(r:udm32033-udm32034) Units=km Length=0.0190093 bus1=udm32033.1.2 bus2=udm32034.1.2 switch=n enabled=y phases=2 Linecode=1P_UG_AL_1/0_Brenau_0_416_0_2_2

New Line.l(r:udm32033-udm32035) Units=km Length=0.0186424 bus1=udm32035.1.2 bus2=udm32033.1.2 switch=n enabled=y phases=2 Linecode=1P_UG_AL_4/0_Sweetbriar_0_416_0_2_2

New Line.l(r:udm32035-udt9049lv) Units=km Length=0.03396180000000001 bus1=udt9049lv.1.2 bus2=udm32035.1.2 switch=n enabled=y phases=2 Linecode=1P_OH_AL_4/0_Zuzara_0_416_0_2_1_2

New Line.l(r:p1ulv19252-udt9050lv) Units=km Length=0.016560300000000003 bus1=udt9050lv.1.2 bus2=p1ulv19252.1.2 switch=n enabled=y phases=2 Linecode=1P_UG_AL_4/0_Sweetbriar_0_416_0_2_2

New Line.l(r:p1ulv27999-udt10122lv) Units=km Length=0.017059500000000002 bus1=udt10122lv.1.2 bus2=p1ulv27999.1.2 switch=n enabled=y phases=2 Linecode=1P_UG_AL_1/0_Brenau_0_416_0_2_2
